<?xml version="1.0" encoding="UTF-8"?>

<!-- generated on 2025-11-15 05:02:15.433270 by randomTrips.py UNKNOWN
<configuration>
    <net-file value="/home/ldp21k/Documents/master/code/v1/maps/Paris_Old_Town-Irregular_Streets.net.xml"/>
    <output-trip-file value="temp_sim_20251115_050212/routes.rou.xml"/>
    <seed value="1234"/>
    <end value="120.0"/>
    <period value="2.4"/>
</configuration>
-->

<!-- generated on 2025-11-15 05:02:15 by Eclipse SUMO duarouter Version 1.24.0
<duarouterConfiguration xmlns:xsi="http://www.w3.org/2001/XMLSchema-instance" xsi:noNamespaceSchemaLocation="http://sumo.dlr.de/xsd/duarouterConfiguration.xsd">

    <input>
        <net-file value="/home/ldp21k/Documents/master/code/v1/maps/Paris_Old_Town-Irregular_Streets.net.xml"/>
        <route-files value="temp_sim_20251115_050212/routes.rou.xml"/>
    </input>

    <output>
        <output-file value="routes.rou.xml"/>
        <alternatives-output value="NUL"/>
    </output>

    <time>
        <begin value="0"/>
        <end value="120.0"/>
    </time>

    <report>
        <no-warnings value="true"/>
        <ignore-errors value="true"/>
        <no-step-log value="true"/>
    </report>

</duarouterConfiguration>
-->

<routes xmlns:xsi="http://www.w3.org/2001/XMLSchema-instance" xsi:noNamespaceSchemaLocation="http://sumo.dlr.de/xsd/routes_file.xsd">
    <vehicle id="0" depart="0.00">
        <route edges="847108035#2 4574308#0 4574308#1 4574308#2 4574308#3 4574308#4 4574308#5 64972826#3 64972826#4 64972826#5 64972826#6 60208632#0 60208632#1 60208632#2 60208632#3 57727929#0 57727929#1 57727929#2 995864597#0 995864597#1 995864597#2 4574398 1369390821 20997886#1 20997886#2 1149186136#0 1149186136#1 1149186136#2 1149186136#3 60208997#0 60208997#1 60208997#2 60208997#3 60208997#4 60208997#5 4574425#0 4574425#1 4574425#2 34237949#0 34237949#1"/>
    </vehicle>
    <vehicle id="1" depart="2.40">
        <route edges="83268801#0 83268801#1 83268801#2 83268801#3 83268801#4 83268801#5 83268801#6 83268801#7 83268801#8 -22973383#1 -22973383#0 22973383#0 22973383#1 -83268801#8 -83268801#7 -83268801#6 -83268801#5 -83268801#4 -83268801#3 -83268801#2 -83268801#1 -83268801#0 -1286263232 -4574366 1239133947#0 1239133947#1 1239133947#2 4574394#0 4574394#1 4574394#2 1153389326#0 1153389326#1 1153389327#1 4574321#0 4574321#1 4574321#2 4574321#3"/>
    </vehicle>
    <vehicle id="2" depart="4.80">
        <route edges="4574429#2 4574429#3 4574429#4 4574429#5 4574429#6 4574429#7 4574429#8 4574429#9 4574429#10 4574429#11 4574429#12 4574429#13 4574429#14 4574429#15 390298282#0 390298282#1 390298282#2 -123487840#6 -123487840#5 -123487840#4 -123487840#3 -123487840#2 -123487840#1 -123487840#0 -83268806#13 -83268806#12 -83268806#11 -83268806#10"/>
    </vehicle>
    <vehicle id="3" depart="7.20">
        <route edges="55477322#2 45841299#0 45841299#1 45841299#2 83262062 569948205#3 569948205#4 569948205#5 55181001 1355349305 681709632#0 681709632#1 4261465#1 4261465#2 4261465#3 1411187696 4040099#0 4040099#1 4040099#2 284302748#0 284302748#1 284302748#2 284302748#3 284302748#4 284302748#5 4039350#0 4039350#1 4039350#2 -808505041 -678522920 516413082 361292434 516413084 1286255016 361292433#0 361292433#1 22973383#0 22973383#1 -83268801#8 -83268801#7 -83268801#6 -83268801#5 -83268801#4 -83268801#3 -83268801#2 -83268801#1 -83268801#0 -1286263232 -4574366 1239133947#0 1239133947#1 1239133947#2 172312427#0 172312427#1 1286204925#0 1286204925#1 20859608#0 20859608#1 20859608#2 20859608#3 654353241#0 654353241#1 654353241#2 654353241#3 654353241#4 654353241#5 466690494#0 466690494#1 466690494#2 466690494#3 466690494#4 34322497#2 34322497#3 16877338#0 16877338#1 16877338#2"/>
    </vehicle>
    <vehicle id="4" depart="9.60">
        <route edges="4574384#0 4574384#1 4574384#2 1158220986#0 1158220986#1"/>
    </vehicle>
    <vehicle id="5" depart="12.00">
        <route edges="1286204925#1 34684208#0 34684208#1 34684208#2 34684208#3 34684208#4 34684208#5 34684208#6 34684208#7 34684208#8 60208514#10 60208514#11 60208514#12 60208514#13 60208514#14 231316793#0 231316793#1 231316793#2 231316793#3 231316793#4 231316793#5 231316793#6 231316793#7 231316793#8 231316793#9 466690491#0 466690491#1 466690491#2 390298283 569948204 4527567#0 4527567#1 4527567#2 390298285#0 390298285#1 390298285#2 390298285#3 20436427#0 20436427#1 20436427#2 20436427#3 20436427#4 995864599#0 995864599#1 995864599#2 -162384238#3 -162384238#2 -162384238#1 -162384238#0 -563926537#1 -563926537#0 -521338709#3 -521338709#2 -521338709#1 -521338709#0 517156285#0 517156285#1 517156285#2 754619062 1422370946 516413083#0 516413083#1 796250050#0 796250050#1 678522920 808505041 -4039350#2 -4039350#1 -4039350#0 4476805#0 4476805#1 4476805#2 4476805#3 517156353#0 517156353#1 14155058#0 14155058#1 14155058#2 1411187696 41739090 41739091#0 41739091#1 41739091#2 467280505 53583655#1 674945573#0 674945573#1 39371291#1 39371291#2 754883372 123324289 193751718#0 193751718#1 22715945#0 22715945#1 22715945#2 22715945#3 22715945#4 22715945#5 22715945#6 22715945#7 22715945#8 22715945#9 689385093#0 689385093#1 689385093#2 689385093#3 689385093#4 689385093#5 689385093#6 689385093#7 1211203383#0 1211203383#1 4039898#0 4039898#1 4039898#2 1211203382 4574298#0 4574298#1 4574298#2 4574298#3 4574298#4 4574298#5 4574298#6 4574298#7 4574298#8 56257425#0 56257425#1 56257425#2 56257425#3 56257425#4 56257425#5 18517723#0 18517723#1 18517723#2 18517723#3 18517723#4 18517723#5 18517723#6 18517723#7 18517723#8 18517723#9 18517723#10 22940894#0 22940894#1 22940894#2 22940894#3 22940894#4 20997884#0 20997884#1 20997884#2 60208997#0 60208997#1 60208997#2 60208997#3 60208997#4 60208997#5 4574425#0 4574425#1 4574425#2 34237949#0 34237949#1 34237949#2 34237949#3 34237949#4 34237949#5 231317175#0 231317175#1 231317175#2 -83268806#1 -83268806#0 10659447#0 10659447#1 10659447#2"/>
    </vehicle>
    <vehicle id="6" depart="14.40">
        <route edges="-162384238#2 -162384238#1 -162384238#0 -563926537#1 -563926537#0 -521338709#3 -521338709#2 -521338709#1 -521338709#0 517156285#0 517156285#1 517156285#2 754619062 1286255016 361292433#0 361292433#1 22973383#0 22973383#1 -83268801#8 -83268801#7 -83268801#6 -83268801#5 -83268801#4 -83268801#3 -83268801#2 -83268801#1 -83268801#0 -1286263232 -4574366 1239133947#0 1239133947#1 1239133947#2 4574394#0 4574394#1 4574394#2 1153389326#0 1153389326#1 1153389327#1 4574321#0 4574321#1 4574321#2 4574321#3 231316793#0 231316793#1 231316793#2 231316793#3 231316793#4 231316793#5 231316793#6 231316793#7 231316793#8 231316793#9 466690491#0 466690491#1 466690491#2 390298283"/>
    </vehicle>
    <vehicle id="7" depart="16.80">
        <route edges="4574364#3 23071686#0 23071686#1 576429484#0 576429482 34322453#1 34322453#2 34322453#3 466690491#0 466690491#1 466690491#2 390298283 569948204 4527567#0 4527567#1 4527567#2 390298285#0 390298285#1 390298285#2 390298285#3 20436427#0 20436427#1 20436427#2 20436427#3 20436427#4 995864599#0 995864599#1 995864599#2 -162384238#3 -162384238#2 -162384238#1 -162384238#0 -563926537#1 -563926537#0 -521338709#3 -521338709#2 -521338709#1 -521338709#0 517156285#0 517156285#1 517156285#2 754619062 1422370946 516413083#0 516413083#1 796250050#0 796250050#1 678522920 808505041 -4039350#2 -4039350#1 -4039350#0 4476805#0 4476805#1 4476805#2 4476805#3 517156353#0 517156353#1 14155058#0 14155058#1 14155058#2 1411187696 41739090 41739091#0 41739091#1 41739091#2 467280505 53583655#1 674945573#0 674945573#1 39371291#1 39371291#2 754883372 123324289 193751718#0 193751718#1 22715945#0 22715945#1 22715945#2 22715945#3 22715945#4 22715945#5 22715945#6 22715945#7 22715945#8 22715945#9 689385093#0 689385093#1 689385093#2 689385093#3 689385093#4 689385093#5 689385093#6 689385093#7 1211203383#0 1211203383#1 4039898#0 4039898#1 4039898#2 1211203382 4574298#0 4574298#1 4574298#2 4574298#3 4574298#4 4574298#5 4574298#6 4574298#7 4574298#8 56257425#0 56257425#1 56257425#2 56257425#3 56257425#4 56257425#5 18517723#0 18517723#1 18517723#2 18517723#3 18517723#4 18517723#5 18517723#6 18517723#7 18517723#8 18517723#9 18517723#10 22940894#0 22940894#1 22940894#2 22940894#3 22940894#4 20997884#0 20997884#1 20997884#2 60208997#0 60208997#1 60208997#2 60208997#3 60208997#4 60208997#5 4574425#0 4574425#1 4574425#2 34237949#0 34237949#1 34237949#2 34237949#3 34237949#4 34237949#5 231317175#0 231317175#1 231317175#2 83268806#2 83268806#3 83268806#4 -83268806#4 -83268806#3"/>
    </vehicle>
    <vehicle id="8" depart="19.20">
        <route edges="4574321#2 4574321#3 231316793#0 231316793#1 231316793#2 231316793#3 231316793#4 231316793#5 231316793#6 231316793#7 231316793#8 231316793#9 466690491#0 466690491#1 466690491#2 390298283 569948204 4527567#0 4527567#1 4527567#2 390298285#0 390298285#1 390298285#2 390298285#3 20436427#0 20436427#1 20436427#2 20436427#3 20436427#4 995864599#0 995864599#1 995864599#2 -162384238#3 -162384238#2 -162384238#1 -162384238#0 -563926537#1 -563926537#0 -521338709#3 -521338709#2 -521338709#1 -521338709#0 517156285#0 517156285#1 517156285#2 754619062 1422370946 516413083#0 516413083#1 796250050#0 796250050#1 678522920 808505041 -4039350#2 -4039350#1 -4039350#0 4476805#0 4476805#1 4476805#2 4476805#3 517156353#0 517156353#1 14155058#0 14155058#1 14155058#2 1411187696 41739090 41739091#0 41739091#1 41739091#2 467280505 53583655#1 674945573#0 674945573#1 39371291#1 39371291#2 754883372 123324289 193751718#0 193751718#1"/>
    </vehicle>
    <vehicle id="9" depart="21.60">
        <route edges="18517723#3 18517723#4 18517723#5 18517723#6 18517723#7 18517723#8 18517723#9 18517723#10 4574429#0 4574429#1 4574429#2 4574429#3 4574429#4 60208514#0 60208514#1 60208514#2 60208514#3 60208514#4 60208514#5 60208514#6 60208514#7 60208514#8 60208514#9 60208514#10 60208514#11 60208514#12 60208514#13 60208514#14 231316793#0 231316793#1 231316793#2 231316793#3 231316793#4 231316793#5 231316793#6 231316793#7 231316793#8 231316793#9 466690491#0 466690491#1 466690491#2 390298283 569948204 4527567#0 4527567#1 4527567#2 390298285#0 390298285#1 390298285#2 390298285#3 20436427#0 20436427#1 20436427#2 20436427#3 20436427#4 995864599#0 995864599#1 995864599#2 -162384238#3 -162384238#2 -162384238#1 -162384238#0 -563926537#1 -563926537#0 -521338709#3 -521338709#2 -521338709#1 -521338709#0 517156285#0 517156285#1 517156285#2 754619062 1286255016 361292433#0 361292433#1 22973383#0 22973383#1 -83268801#8 -83268801#7 -83268801#6 -83268801#5 -83268801#4 -83268801#3 -83268801#2 -83268801#1 -83268801#0 -1286263232 -4574366 1239133947#0 1239133947#1 1239133947#2 55477322#0 55477322#1 55477322#2 45841299#0 45841299#1 45841299#2 83262062"/>
    </vehicle>
    <vehicle id="10" depart="24.00">
        <route edges="34322512#0 34322512#1 34322512#2 34322512#3 34322512#4 34322512#5 511451176#0 511451176#1 511451176#2 390298285#0 390298285#1 390298285#2 390298285#3 20436427#0 20436427#1 20436427#2 20436427#3 20436427#4 995864599#0 995864599#1 995864599#2 -162384238#3 -162384238#2 -162384238#1 -162384238#0 -563926537#1 -563926537#0 754316773 552545358#0 552545358#1 4527562#0"/>
    </vehicle>
    <vehicle id="11" depart="26.40">
        <route edges="-22973383#0 361292435#0 361292435#1 361292435#2 1411194256 516413083#0 516413083#1 796250050#0 796250050#1 678522920 808505041 -4039350#2 -4039350#1 -4039350#0 4476805#0 4476805#1 4476805#2 4476805#3 517156353#0 517156353#1 14155058#0 14155058#1 14155058#2 1411187696 41739090 41739091#0 41739091#1 41739091#2 467280505 53583655#1 674945573#0 674945573#1 39371291#1 39371291#2 754883372 123324289 193751718#0 193751718#1 22715945#0 22715945#1 22715945#2 22715945#3 22715945#4 22715945#5 22715945#6 22715945#7 22715945#8 22715945#9 689385093#0 689385093#1 689385093#2 689385093#3 689385093#4 689385093#5 689385093#6 689385093#7 1211203383#0 1211203383#1 4039898#0 4039898#1 4039898#2"/>
    </vehicle>
    <vehicle id="12" depart="28.80">
        <route edges="-4574375#1 -4574375#0 4574375#0 4574375#1 4574375#2 4574395#0 4574395#1 4574395#2 34237949#0 34237949#1 34237949#2 34237949#3 34237949#4 34237949#5 231317175#0 231317175#1 231317175#2 83268806#2 83268806#3 83268806#4 83268806#5 83268806#6 83268806#7 83268806#8 83268806#9 83268806#10 83268806#11 83268806#12 83268806#13 123487840#0 123487840#1 123487840#2 4574330#0 4574330#1"/>
    </vehicle>
    <vehicle id="13" depart="31.20">
        <route edges="1158220986#1 4574311#0 4574311#1 4574311#2 22940894#3 22940894#4 20997884#0 20997884#1 20997884#2"/>
    </vehicle>
    <vehicle id="14" depart="33.60">
        <route edges="-4039898#1 19856732#0 19856732#1 19856732#2 19856732#3"/>
    </vehicle>
    <vehicle id="15" depart="36.00">
        <route edges="576429486#1 576429487#0 576429487#1 576429487#2 4574420 1206566927 576429488#1 231316793#7 231316793#8 231316793#9 466690491#0 466690491#1 466690491#2 390298283 569948204 4527567#0 4527567#1 4527567#2 390298285#0 390298285#1 390298285#2 390298285#3 20436427#0 20436427#1 20436427#2 20436427#3 20436427#4 995864599#0 995864599#1 995864599#2 -162384238#3 -162384238#2 -162384238#1 -162384238#0 -563926537#1 -563926537#0 -521338709#3 -521338709#2 -521338709#1 -521338709#0 517156285#0 517156285#1 517156285#2 754619062 1422370946 516413083#0 516413083#1 796250050#0 796250050#1 678522920 808505041 -4039350#2 -4039350#1 -4039350#0 4476805#0 4476805#1 4476805#2 4476805#3 517156353#0 517156353#1 14155058#0 14155058#1 14155058#2 1411187696 41739090 41739091#0 41739091#1 41739091#2 467280505 53583655#1 674945573#0 674945573#1 39371291#1 39371291#2 754883372 123324289 193751718#0 193751718#1 22715945#0 22715945#1 22715945#2 22715945#3 22715945#4 22715945#5 22715945#6 22715945#7 22715945#8 22715945#9 689385093#0 689385093#1 689385093#2 689385093#3 689385093#4 689385093#5 689385093#6 689385093#7 1211203383#0 1211203383#1 4039898#0 4039898#1 4039898#2 1211203382 4574298#0 4574298#1 4574298#2 4574298#3 4574298#4 4574298#5 4574298#6 4574298#7 4574298#8 56257425#0 56257425#1 56257425#2 56257425#3 56257425#4 56257425#5 18517723#0 18517723#1 18517723#2 18517723#3 18517723#4 18517723#5 18517723#6 18517723#7 18517723#8 18517723#9 18517723#10 4574429#0 4574429#1 4574429#2 4574429#3 4574429#4 4574429#5 4574429#6 4574429#7 4574429#8 4574429#9 4574429#10 4574429#11 4574429#12 4574429#13 4574429#14 4574429#15 390298282#0 390298282#1 390298282#2 -123487840#6 -123487840#5 -123487840#4 -123487840#3 -123487840#2 -123487840#1 -123487840#0 123487840#0 123487840#1 123487840#2"/>
    </vehicle>
    <vehicle id="16" depart="38.40">
        <route edges="1206566927 576429488#1 231316793#7 231316793#8 231316793#9 466690491#0 466690491#1 466690491#2 390298283 569948204 4527567#0 4527567#1 4527567#2 390298285#0 390298285#1 390298285#2 390298285#3 20436427#0 20436427#1 20436427#2 20436427#3 20436427#4 995864599#0 995864599#1 995864599#2 -162384238#3 -162384238#2 -162384238#1 -162384238#0 -563926537#1 -563926537#0 -521338709#3 -521338709#2 -521338709#1 -521338709#0 517156285#0 517156285#1 517156285#2 754619062 1422370946 516413083#0 516413083#1 796250050#0 796250050#1 678522920 808505041 -4039350#2 -4039350#1 -4039350#0 4476805#0 4476805#1 4476805#2 4476805#3 517156353#0 517156353#1 14155058#0 14155058#1 14155058#2 1411187696 41739090 41739091#0 41739091#1 41739091#2 467280505 53583655#1 674945573#0 674945573#1 39371291#1 39371291#2 754883372 123324289 193751718#0 193751718#1 22715945#0 22715945#1 22715945#2 22715945#3 22715945#4 22715945#5 22715945#6 22715945#7 22715945#8 22715945#9 689385093#0 689385093#1 689385093#2 689385093#3 689385093#4 689385093#5 689385093#6 689385093#7 1211203383#0 1211203383#1 4039898#0 4039898#1 4039898#2 1211203382 4574298#0 4574298#1 4574298#2 4574298#3 4574298#4 4574298#5 4574298#6 4574298#7 4574298#8 56257425#0 56257425#1 56257425#2 56257425#3 56257425#4 56257425#5 18517723#0 18517723#1 18517723#2 18517723#3 18517723#4 18517723#5 18517723#6 18517723#7 18517723#8 18517723#9 18517723#10 22940894#0 22940894#1 22940894#2 22940894#3 22940894#4 20997884#0 20997884#1 20997884#2 60208997#0 60208997#1 60208997#2 60208997#3 60208997#4 60208997#5 4574425#0 4574425#1 4574425#2 34237949#0 34237949#1 34237949#2 34237949#3 34237949#4 34237949#5 231317175#0 231317175#1 231317175#2 83268806#2 83268806#3 83268806#4"/>
    </vehicle>
    <vehicle id="17" depart="40.80">
        <route edges="1206566927 576429488#1 231316793#7 231316793#8 231316793#9 466690491#0 466690491#1 466690491#2 390298283 569948204 4527567#0 4527567#1 4527567#2 390298285#0 390298285#1 390298285#2 390298285#3 20436427#0 20436427#1 20436427#2 20436427#3 20436427#4 995864599#0 995864599#1 995864599#2 -162384238#3 -162384238#2 -162384238#1 -162384238#0 -563926537#1 -563926537#0 -521338709#3 -521338709#2 -521338709#1 -521338709#0 517156285#0 517156285#1 517156285#2 754619062 1422370946 516413083#0 516413083#1 796250050#0 796250050#1 678522920 808505041 -4039350#2 -4039350#1 -4039350#0 4476805#0 4476805#1 4476805#2 4476805#3 517156353#0 517156353#1 14155058#0 14155058#1 14155058#2 1411187696 41739090 41739091#0 41739091#1 41739091#2 467280505 53583655#1 674945573#0 674945573#1 39371291#1 39371291#2 754883372 123324289 193751718#0 193751718#1 22715945#0 22715945#1 22715945#2 22715945#3 22715945#4 22715945#5 22715945#6 22715945#7 22715945#8 22715945#9 689385093#0 689385093#1 689385093#2 689385093#3 689385093#4 689385093#5 689385093#6 689385093#7 1211203383#0 1211203383#1 4039898#0 4039898#1 4039898#2 1211203382 4574298#0 4574298#1 4574298#2 4574298#3 4574298#4 4574298#5 4574298#6 4574298#7 4574298#8 56257425#0 56257425#1 56257425#2 56257425#3 56257425#4 56257425#5 18517723#0 18517723#1 18517723#2 18517723#3 18517723#4 18517723#5 18517723#6 18517723#7 18517723#8 18517723#9 18517723#10 4574429#0 4574429#1 4574429#2 4574429#3 4574429#4 4574429#5 4574429#6 4574429#7 4574429#8 4574429#9 4574429#10 4574429#11 4574429#12 4574429#13 4574429#14 4574429#15 60208632#0"/>
    </vehicle>
    <vehicle id="18" depart="43.20">
        <route edges="-4039898#2 -4039898#1 4039898#1 4039898#2 1211203382 4574298#0 4574298#1 4574298#2 4574298#3 4574298#4 4574298#5 4574298#6 4574298#7 4574298#8 56257425#0 56257425#1 56257425#2 56257425#3 56257425#4 56257425#5 18517723#0 18517723#1 18517723#2 18517723#3 18517723#4 18517723#5 18517723#6 18517723#7 18517723#8 18517723#9 18517723#10 4574429#0 4574429#1 4574429#2 4574429#3 4574429#4 60208514#0 60208514#1 60208514#2 60208514#3 60208514#4 60208514#5 60208514#6 60208514#7 60208514#8 60208514#9 60208514#10 60208514#11 60208514#12 60208514#13 60208514#14 231316793#0 231316793#1 231316793#2 231316793#3 231316793#4 231316793#5 231316793#6 231316793#7"/>
    </vehicle>
    <vehicle id="19" depart="45.60">
        <route edges="56257425#2 56257425#3 56257425#4 56257425#5 18517723#0 18517723#1 18517723#2 18517723#3 18517723#4 18517723#5 18517723#6 18517723#7 18517723#8 18517723#9 18517723#10 34322497#0 34322497#1 34322497#2 34322497#3 34322497#4 34322497#5 34322497#6 34684208#0 34684208#1 34684208#2 34684208#3 34684208#4"/>
    </vehicle>
    <vehicle id="20" depart="48.00">
        <route edges="306392296#1 576429485 576429482 34322453#1 34322453#2 34322453#3 466690491#0 466690491#1 466690491#2 390298283 569948204 4527567#0 4527567#1 4527567#2 390298285#0 390298285#1 390298285#2 390298285#3 20436427#0 20436427#1 20436427#2 20436427#3 20436427#4 995864599#0 995864599#1 995864599#2 -162384238#3 -162384238#2 -162384238#1 -162384238#0 -563926537#1 -563926537#0 -521338709#3 -521338709#2 -521338709#1 -521338709#0 517156285#0 517156285#1 517156285#2 754619062 1422370946 516413083#0 516413083#1 796250050#0 796250050#1 678522920 808505041 -4039350#2 -4039350#1 -4039350#0 4476805#0 4476805#1 4476805#2 4476805#3 517156353#0 517156353#1 14155058#0 14155058#1 14155058#2 1411187696 41739090 41739091#0 41739091#1 41739091#2 467280505 53583655#1 674945573#0 674945573#1 39371291#1 39371291#2 754883372 123324289 193751718#0 193751718#1 22715945#0 22715945#1 22715945#2 22715945#3 22715945#4 22715945#5 22715945#6 22715945#7 22715945#8 22715945#9 689385093#0 689385093#1 689385093#2 689385093#3 689385093#4 689385093#5 689385093#6 689385093#7 1211203383#0 1211203383#1 4039898#0 4039898#1 4039898#2 1211203382 4574298#0 4574298#1 4574298#2 4574298#3 4574298#4 4574298#5 4574298#6 4574298#7 4574298#8 56257425#0 56257425#1 56257425#2 56257425#3 56257425#4 56257425#5 18517723#0 18517723#1 18517723#2 18517723#3 18517723#4 18517723#5 18517723#6 18517723#7 18517723#8 18517723#9 18517723#10 22940894#0 22940894#1 22940894#2 22940894#3 22940894#4 20997884#0 20997884#1 20997884#2 60208997#0 60208997#1 60208997#2 60208997#3 60208997#4 60208997#5 4574425#0 4574425#1 4574425#2 34237949#0 34237949#1 34237949#2 34237949#3 34237949#4 34237949#5 231317175#0 231317175#1 231317175#2 -83268806#1 -83268806#0 -83268809#1 -83268809#0 -294826461#4 -294826461#3 995852070#0 995852070#1 10659501#0 10659501#1"/>
    </vehicle>
    <vehicle id="21" depart="50.40">
        <route edges="4527562#4 34322512#0 34322512#1 34322512#2 34322512#3 34322512#4 34322512#5 511451176#0 511451176#1 511451176#2 390298285#0 390298285#1 390298285#2 390298285#3 20436427#0 20436427#1 20436427#2 20436427#3 20436427#4 995864599#0 995864599#1 995864599#2 -162384238#3 -162384238#2 -162384238#1 -162384238#0 -563926537#1 -563926537#0 -521338709#3 -521338709#2 -521338709#1 -521338709#0 517156285#0 517156285#1 517156285#2 754619062 1422370946 516413083#0 516413083#1 796250050#0 796250050#1 678522920 808505041 -4039350#2 -4039350#1 -4039350#0 4476805#0 4476805#1 4476805#2 4476805#3 517156353#0 517156353#1 14155058#0 14155058#1 14155058#2 1411187696 41739090 41739091#0 41739091#1 41739091#2 467280505 53583655#1 674945573#0 674945573#1 39371291#1 39371291#2 754883372 123324289 193751718#0 193751718#1 22715945#0 22715945#1 22715945#2 22715945#3 22715945#4 22715945#5 22715945#6 22715945#7 22715945#8 22715945#9 689385093#0 689385093#1 689385093#2 689385093#3 689385093#4 689385093#5 689385093#6 689385093#7 1211203383#0 1211203383#1 4039898#0 4039898#1 4039898#2 1211203382 4574298#0 4574298#1 4574298#2 4574298#3 4574298#4 4574298#5 4574298#6 4574298#7 4574298#8 56257425#0 56257425#1 56257425#2 56257425#3 56257425#4 56257425#5 18517723#0 18517723#1 18517723#2 18517723#3 18517723#4 18517723#5 18517723#6 18517723#7 18517723#8 18517723#9 18517723#10 4574429#0 4574429#1 4574429#2 4574429#3 4574429#4 60208514#0 60208514#1 60208514#2 60208514#3 60208514#4 60208514#5"/>
    </vehicle>
    <vehicle id="22" depart="52.80">
        <route edges="390298285#1 390298285#2 390298285#3 20436427#0 20436427#1 20436427#2 20436427#3 20436427#4 995864599#0 995864599#1 995864599#2 -162384238#3 -162384238#2 -162384238#1 -162384238#0 -563926537#1 -563926537#0 -521338709#3 -521338709#2 -521338709#1 -521338709#0 517156285#0 517156285#1 517156285#2 754619062 1422370946 516413083#0 516413083#1 796250050#0 796250050#1 678522920 808505041 -4039350#2 -4039350#1 -4039350#0 4476805#0 4476805#1 4476805#2 4476805#3 517156353#0 517156353#1 14155058#0 14155058#1 14155058#2 1411187696 41739090 41739091#0 41739091#1 41739091#2 53585863#0 53585863#1 53585863#2 60184375#1 60184375#2 60184375#3"/>
    </vehicle>
    <vehicle id="23" depart="55.20">
        <route edges="4574425#1 4574425#2 34237949#0 34237949#1 34237949#2 34237949#3 34237949#4 34237949#5 231317175#0 231317175#1 231317175#2 83268806#2 83268806#3 83268806#4 83268806#5 83268806#6 83268806#7 83268806#8 83268806#9 4574350#0 4574350#1 4574350#2 4574408#2 4574408#3"/>
    </vehicle>
    <vehicle id="24" depart="57.60">
        <route edges="576429488#1 231316793#7 231316793#8 231316793#9 466690491#0 466690491#1 466690491#2 390298283 569948204 4527567#0 4527567#1 4527567#2 390298285#0 390298285#1 390298285#2 390298285#3 20436427#0 20436427#1 20436427#2 20436427#3 20436427#4 995864599#0 995864599#1 995864599#2 -162384238#3 -162384238#2 -162384238#1 -162384238#0 -563926537#1 -563926537#0 -521338709#3 -521338709#2 -521338709#1 -521338709#0 517156285#0 517156285#1 517156285#2 754619062 1422370946 516413083#0 516413083#1 796250050#0 796250050#1 678522920 808505041 -4039350#2 -4039350#1 -4039350#0 4476805#0 4476805#1 4476805#2 4476805#3 517156353#0 517156353#1 14155058#0 14155058#1 14155058#2 1411187696 41739090 41739091#0 41739091#1 41739091#2 467280505 53583655#1 674945573#0 674945573#1 39371291#1 39371291#2 754883372 123324289 193751718#0 193751718#1 22715945#0 22715945#1 22715945#2 22715945#3 22715945#4 22715945#5 22715945#6 22715945#7 22715945#8 22715945#9 689385093#0 689385093#1 689385093#2 689385093#3 689385093#4 689385093#5 689385093#6 689385093#7 1211203383#0 1211203383#1 4039898#0 4039898#1 4039898#2 1211203382 4574298#0 4574298#1 4574298#2 4574298#3 4574298#4 4574298#5 4574298#6 4574298#7 4574298#8 56257425#0 56257425#1 56257425#2 56257425#3 56257425#4 56257425#5 18517723#0 18517723#1 18517723#2 18517723#3 18517723#4 18517723#5 18517723#6 18517723#7 18517723#8 18517723#9 18517723#10 4574429#0 4574429#1 4574429#2 4574429#3 4574429#4 4574429#5 4574429#6 4574429#7 4574429#8 4574429#9 4574429#10 4574429#11 4574429#12 4574429#13 4574429#14 4574429#15 60208632#0 60208632#1 60208632#2 60208632#3 57727929#0 57727929#1 57727929#2 1199592042#0"/>
    </vehicle>
    <vehicle id="25" depart="60.00">
        <route edges="689385093#4 689385093#5 689385093#6 689385093#7 1211203383#0 1211203383#1 4039898#0 4039898#1 4039898#2 1211203382 4574298#0 4574298#1 4574298#2 4574298#3 4574298#4 4574298#5 4574298#6 4574298#7 4574298#8 56257425#0 56257425#1 56257425#2 56257425#3 56257425#4 56257425#5 18517723#0 18517723#1 18517723#2 18517723#3 18517723#4 18517723#5 18517723#6 18517723#7 18517723#8 18517723#9 18517723#10 4574429#0 4574429#1 4574429#2 4574429#3 4574429#4 60208514#0 60208514#1 60208514#2 60208514#3 60208514#4 60208514#5 60208514#6 60208514#7 60208514#8 60208514#9 60208514#10 60208514#11 60208514#12 60208514#13 60208514#14 231316793#0 231316793#1 231316793#2 231316793#3 231316793#4 231316793#5 231316793#6 231316793#7 231316793#8 231316793#9 466690491#0 466690491#1 466690491#2 390298283 569948204 4527567#0 4527567#1 4527567#2 390298285#0 390298285#1 390298285#2 390298285#3 20436427#0 20436427#1 20436427#2 20436427#3 20436427#4 995864599#0 995864599#1 995864599#2 -162384238#3 -162384238#2 -162384238#1 -162384238#0 -563926537#1 -563926537#0 -521338709#3 -521338709#2 -521338709#1 -521338709#0 517156285#0 517156285#1 517156285#2 754619062 1422370946 516413083#0 516413083#1 796250050#0 796250050#1 678522920 808505041 -4039350#2 -4039350#1 -4039350#0 4476805#0 4476805#1 4476805#2 4476805#3 517156353#0 517156353#1 14155058#0 14155058#1 14155058#2 1411187696 41739090 41739091#0 41739091#1 41739091#2 467280505 53583655#1 674945573#0 674945573#1 39371291#1 39371291#2 754883372 123324289 193751718#0 193751718#1"/>
    </vehicle>
    <vehicle id="26" depart="62.40">
        <route edges="1211203382 4574298#0 4574298#1 4574298#2 4574298#3 4574298#4 4574298#5 4574298#6 4574298#7 4574298#8 56257425#0 56257425#1 56257425#2 56257425#3 56257425#4 56257425#5 18517723#0 18517723#1 18517723#2 18517723#3 18517723#4 18517723#5 18517723#6 18517723#7 18517723#8 18517723#9 18517723#10 22940894#0 22940894#1 22940894#2 22940894#3 22940894#4 22940894#5 22940894#6 22940894#7 22940894#8 22940894#9 738914252#0 738914252#1 738914252#2 738914252#3 738914252#4 22940912#0 22940912#1 22940912#2 22940912#3 22940912#4 22940912#5 22940912#6 22940912#7 22940912#8 22940912#9 22940912#10 22940912#11 22940912#12 22940912#13 60208991#3"/>
    </vehicle>
    <vehicle id="27" depart="64.80">
        <route edges="34322497#0 34322497#1 34322497#2 34322497#3 34322497#4 34322497#5 34322497#6 34684208#0 34684208#1 34684208#2 34684208#3 34684208#4 34684208#5 34684208#6 34684208#7 34684208#8 60208514#10 60208514#11 60208514#12 60208514#13 60208514#14 231316793#0 231316793#1 231316793#2 231316793#3 231316793#4 231316793#5 231316793#6 231316793#7 231316793#8 231316793#9 466690491#0 466690491#1 466690491#2 390298283 569948204 4527567#0 4527567#1 4527567#2 390298285#0 390298285#1 390298285#2 390298285#3 20436427#0 20436427#1 20436427#2 20436427#3 20436427#4 995864599#0 995864599#1 995864599#2 -162384238#3 -162384238#2 -162384238#1 -162384238#0 -563926537#1"/>
    </vehicle>
    <vehicle id="28" depart="67.20">
        <route edges="4040099#2 284302748#0 284302748#1 284302748#2 284302748#3 284302748#4 284302748#5 4476805#0 4476805#1 4476805#2 4476805#3 517156353#0 517156353#1 14155058#0 14155058#1 14155058#2 1411187696 41739090 41739091#0 41739091#1 41739091#2 467280505 53583655#1 674945573#0 674945573#1 39371291#1 39371291#2 754883372 123324289 193751718#0 193751718#1 22715945#0 22715945#1 22715945#2 22715945#3 22715945#4 22715945#5 22715945#6 22715945#7 22715945#8 22715945#9 689385093#0 689385093#1 689385093#2 689385093#3 689385093#4 689385093#5 689385093#6 689385093#7 1211203383#0 1211203383#1 4039898#0 4039898#1 4039898#2 1211203382 4574298#0 4574298#1 4574298#2 4574298#3 4574298#4 4574298#5 4574298#6 4574298#7 4574298#8 56257425#0 56257425#1 56257425#2 56257425#3 56257425#4 56257425#5 18517723#0 18517723#1 18517723#2 18517723#3 18517723#4 18517723#5 18517723#6 18517723#7 18517723#8 18517723#9 18517723#10 22940894#0 22940894#1 22940894#2 22940894#3 22940894#4 20997884#0 20997884#1 20997884#2 60208997#0 60208997#1 60208997#2 60208997#3 60208997#4 60208997#5 4574425#0 4574425#1 4574425#2 34237949#0 34237949#1 34237949#2 34237949#3 34237949#4 34237949#5 231317175#0 231317175#1 231317175#2 83268806#2 83268806#3 83268806#4 -83268806#4 -83268806#3 -83268806#2"/>
    </vehicle>
    <vehicle id="29" depart="69.60">