<?xml version="1.0" encoding="UTF-8"?>

<!-- generated on 2025-11-20 17:20:17.277933 by Eclipse SUMO randomTrips.py UNKNOWN
<configuration>
    <net-file value="/home/ldp21k/Documents/master/code/v1/maps/highway.net.xml"/>
    <output-trip-file value="temp_20251120_172016/random.rou.xml"/>
    <seed value="1234"/>
    <end value="200.0"/>
    <period value="200.0"/>
</configuration>
-->

<!-- generated on 2025-11-20T17:20:17.267638-03:00 by Eclipse SUMO duarouter 1.25.0
<duarouterConfiguration xmlns:xsi="http://www.w3.org/2001/XMLSchema-instance" xsi:noNamespaceSchemaLocation="http://sumo.dlr.de/xsd/duarouterConfiguration.xsd">

    <input>
        <net-file value="/home/ldp21k/Documents/master/code/v1/maps/highway.net.xml"/>
        <route-files value="temp_20251120_172016/random.rou.xml"/>
    </input>

    <output>
        <output-file value="routes.rou.xml"/>
        <alternatives-output value="NUL"/>
    </output>

    <time>
        <begin value="0"/>
        <end value="200.0"/>
    </time>

    <report>
        <no-warnings value="true"/>
        <ignore-errors value="true"/>
        <no-step-log value="true"/>
    </report>

</duarouterConfiguration>
-->

<routes xmlns:xsi="http://www.w3.org/2001/XMLSchema-instance" xsi:noNamespaceSchemaLocation="http://sumo.dlr.de/xsd/routes_file.xsd">
    <vehicle id="0" depart="0.00">
        <route edges="4864872 -11644338#2 -38321181#3 -38321181#1 1212464301#2 28950719#2 28950719#7 1333696411 1431945895 1431945896#0 1239209456#0 1239209456#2"/>
    </vehicle>
</routes>
