<?xml version="1.0" encoding="UTF-8"?>

<!-- generated on 2025-11-16 16:24:51.193064 by randomTrips.py UNKNOWN
<configuration>
    <net-file value="/home/ldp21k/Documents/master/code/v1/maps/berlin.net.xml"/>
    <output-trip-file value="temp_sim_20251116_162449/random.rou.xml"/>
    <seed value="1234"/>
    <end value="300.0"/>
    <period value="60.0"/>
</configuration>
-->

<!-- generated on 2025-11-16 16:24:51 by Eclipse SUMO duarouter Version 1.24.0
<duarouterConfiguration xmlns:xsi="http://www.w3.org/2001/XMLSchema-instance" xsi:noNamespaceSchemaLocation="http://sumo.dlr.de/xsd/duarouterConfiguration.xsd">

    <input>
        <net-file value="/home/ldp21k/Documents/master/code/v1/maps/berlin.net.xml"/>
        <route-files value="temp_sim_20251116_162449/random.rou.xml"/>
    </input>

    <output>
        <output-file value="routes.rou.xml"/>
        <alternatives-output value="NUL"/>
    </output>

    <time>
        <begin value="0"/>
        <end value="300.0"/>
    </time>

    <report>
        <no-warnings value="true"/>
        <ignore-errors value="true"/>
        <no-step-log value="true"/>
    </report>

</duarouterConfiguration>
-->

<routes xmlns:xsi="http://www.w3.org/2001/XMLSchema-instance" xsi:noNamespaceSchemaLocation="http://sumo.dlr.de/xsd/routes_file.xsd">
    <vehicle id="0" depart="0.00">
        <route edges="68647306#5 68647306#6 -4773029#4 -4773029#3 -4773029#2 -4773029#1 -4773029#0 -66071366#2 -66071366#1 -66071366#0 -1426897601#1 -1426897601#0 -1426897602#1 -1426897602#0 -389101365 -1426897598#3 -1426897598#2 -1426897598#1 -1426897598#0 -35557143#3 -35557143#2 -35557143#1 -35557143#0 -1190781963#1 -1190781963#0 -1190781962#1 -1190781962#0 -292429056#1 -292429056#0 -1423265551#3 -1423265551#2 -1423265552#1 -1423265552#0 -168935756 -1110748916#1 -1110748916#0 -681299267#1 -681299267#0 -1110749336#1 -1110749336#0 1110749336#0 1110749336#1"/>
    </vehicle>
    <vehicle id="1" depart="60.00">
        <route edges="66071366#0 66071366#1 66071366#2 -66071366#2 -66071366#1 -66071366#0 -1426897601#1 -1426897601#0 -1426897602#1 -1426897602#0 -389101365 -1426897598#3 -1426897598#2 -1426897598#1 -1426897598#0 -35557143#3 -35557143#2 -35557143#1 -35557143#0 -1190781963#1 -1190781963#0 -1190781962#1 -1190781962#0 -292429056#1 -292429056#0 -1423265551#3 -1423265551#2 -1423265552#1 -1423265552#0 -168935756 -1110748916#1 -1110748916#0 -1424485859#1 -1424485859#0 -753316505 -1424485851#3 -1424485851#2 -1424485851#1 -1424485851#0 1228446781 1424485853#0"/>
    </vehicle>
    <vehicle id="2" depart="120.00">
        <route edges="1427113462 874528353#0 874528353#1 874528353#2 874528353#3 874528353#4 -4588220#2 -4588220#1 -4588220#0 -1155757392 -1155757393 -1423265552#3 -1423265552#2 1423265551#2 1423265551#3 292429056#0 292429056#1 1190781962#0 1190781962#1 1190781963#0 1190781963#1 35557143#0 35557143#1 35557143#2 35557143#3 1426897598#0 1426897598#1 1426897598#2 1426897598#3 389101365 1426897602#0 1426897602#1 1426897601#0 1426897601#1 66071366#0 66071366#1 66071366#2 66071366#3 66071366#4 66071366#5 1127602336#0 1127602336#1 23755950 1423958086#0 1423958086#1 -1423958088#1 -1423958088#0 -831860725 -831860726 -43346200 734578686 1233790389 15973619#0 -15973619#0 -1233790389"/>
    </vehicle>
    <vehicle id="3" depart="180.00">
        <route edges="24509317#1 24509317#2 24509317#3 -15973619#1 4611718#0 4611718#1 4611718#2 4611718#3 1238797610#0 1238797610#1 1238797610#2 1238797610#3 1238797610#4 1252995263 23017853#0 23017853#1 23017853#2 23017853#3 -23017853#3 -23017853#2"/>
    </vehicle>
    <vehicle id="4" depart="240.00">
        <route edges="-1127602092#0 -1105574290 -1426727707#3 -1426727707#2 -1233798019 -1126241276#1 -1126241276#0 -66071366#5 -66071366#4 -66071366#3 -66071366#2 -66071366#1 -66071366#0 -1426897601#1 -1426897601#0 -1426897602#1 -1426897602#0 -389101365 -1426897598#3 -1426897598#2 -1426897598#1 -1426897598#0 -35557143#3 -35557143#2 -35557143#1 -35557143#0 -1190781963#1 -1190781963#0 42102542#0 42102542#1 1190781965 196850608#0 196850608#1 196850608#2 1424634881#0 1424634881#1 1424634879 1424634880#0 1424634880#1 1424634880#2 1424634880#3 1424634883 1424634884#0 1424634884#1 1424634884#2 1424634884#3 1424634884#4 1132163645 1424668407#0 1424668407#1 199847247#0 199847247#1 199847247#2 199847247#3 199847247#4 -327462543#3 -327462543#2 -327462543#1 -327462543#0 327462543#0 327462543#1"/>
    </vehicle>
</routes>
