<?xml version="1.0" encoding="UTF-8"?>

<!-- generated on 2025-12-09 01:22:07.778942 by Eclipse SUMO randomTrips.py UNKNOWN
<configuration>
    <net-file value="/maps/suburban.net.xml"/>
    <output-trip-file value="temp_expert_random_20251209_012207.rou.xml"/>
    <seed value="1234"/>
    <end value="400.0"/>
    <period value="40.0"/>
</configuration>
-->

<!-- generated on 2025-12-09T01:22:07.766717+00:00 by Eclipse SUMO duarouter 1.25.0
<duarouterConfiguration xmlns:xsi="http://www.w3.org/2001/XMLSchema-instance" xsi:noNamespaceSchemaLocation="http://sumo.dlr.de/xsd/duarouterConfiguration.xsd">

    <input>
        <net-file value="/maps/suburban.net.xml"/>
        <route-files value="temp_expert_random_20251209_012207.rou.xml"/>
    </input>

    <output>
        <output-file value="routes.rou.xml"/>
        <alternatives-output value="NUL"/>
    </output>

    <time>
        <begin value="0"/>
        <end value="400.0"/>
    </time>

    <report>
        <no-warnings value="true"/>
        <ignore-errors value="true"/>
        <no-step-log value="true"/>
    </report>

</duarouterConfiguration>
-->

<routes xmlns:xsi="http://www.w3.org/2001/XMLSchema-instance" xsi:noNamespaceSchemaLocation="http://sumo.dlr.de/xsd/routes_file.xsd">
    <vehicle id="0" depart="0.00">
        <route edges="718428132#8 1426700002#0 70367897#6 1426700000#0 1425021792#0 1425021790#2 1425021786#3 30243829#1 1425021823#0 1273340895"/>
    </vehicle>
    <vehicle id="1" depart="40.00">
        <route edges="-1146920432 1146920431#0 43336772#0 149843723#0 329984188 1425021824#0 1425021823#0 1425021823#3 1425021823#5 1425021820#1 1425021818#2 1208904602#0 1208904603#1 -604058361#1 -156817870#1 4706348#0"/>
    </vehicle>
    <vehicle id="2" depart="80.00">
        <route edges="64455493#0 -718428133#2 1426700002#0 70367897#6 1426700000#0 1425021792#0 1425021790#2 1425021786#3 30243829#1 1425063043#0"/>
    </vehicle>
    <vehicle id="3" depart="120.00">
        <route edges="1436188653 191525364#1 -191529699#1 -964869605#2 1425021818#2 1208904602#0 1208904603#1 1425021847#0 1425021847#2 14025482#2 14025482#4 14025482#6 -1425021845#0"/>
    </vehicle>
    <vehicle id="4" depart="160.00">
        <route edges="148521799#0 1426700007#2 -844553071#1 -718428133#5 -718428133#2 -1426700003#2 -718428132#7 -718428132#2 -1267864439#3 -1267864438#3 -1445972970#3 -1445972971#1 -147615861#0"/>
    </vehicle>
    <vehicle id="5" depart="200.00">
        <route edges="-1267864439#3 1267864438#4 1267864439#5 718428132#3 22723667#0"/>
    </vehicle>
    <vehicle id="6" depart="240.00">
        <route edges="-718428132#2 233764913#0 -1426703731#2 -33080181#2 1426703726"/>
    </vehicle>
    <vehicle id="7" depart="280.00">
        <route edges="1426699993#0 147615859#0 -844553069#3 147615860#4 1445228015 -1426703731#2"/>
    </vehicle>
    <vehicle id="8" depart="320.00">
        <route edges="-147615856#1 147615857#3 1445972970#0 1426703734#0 1445228015 1426699993#0 1426699993#3 329983269#0 149843723#0 329984188 -1213250743#2 -1425366197#1"/>
    </vehicle>
    <vehicle id="9" depart="360.00">
        <route edges="-1208904603#0 1425021792#0 1425021790#2 1425021786#3 30243829#1 1425021823#0 1273340895 1424986796"/>
    </vehicle>
</routes>
