<?xml version="1.0" encoding="UTF-8"?>

<!-- generated on 2025-11-24 21:17:08.813728 by Eclipse SUMO randomTrips.py UNKNOWN
<configuration>
    <net-file value="/home/ldp21k/Documents/master/code/v1/maps/urban_grid.net.xml"/>
    <output-trip-file value="temp_20251124_211708/random.rou.xml"/>
    <seed value="1234"/>
    <end value="500.0"/>
    <period value="50.0"/>
</configuration>
-->

<!-- generated on 2025-11-24T21:17:08.803320-03:00 by Eclipse SUMO duarouter 1.25.0
<duarouterConfiguration xmlns:xsi="http://www.w3.org/2001/XMLSchema-instance" xsi:noNamespaceSchemaLocation="http://sumo.dlr.de/xsd/duarouterConfiguration.xsd">

    <input>
        <net-file value="/home/ldp21k/Documents/master/code/v1/maps/urban_grid.net.xml"/>
        <route-files value="temp_20251124_211708/random.rou.xml"/>
    </input>

    <output>
        <output-file value="routes.rou.xml"/>
        <alternatives-output value="NUL"/>
    </output>

    <time>
        <begin value="0"/>
        <end value="500.0"/>
    </time>

    <report>
        <no-warnings value="true"/>
        <ignore-errors value="true"/>
        <no-step-log value="true"/>
    </report>

</duarouterConfiguration>
-->

<routes xmlns:xsi="http://www.w3.org/2001/XMLSchema-instance" xsi:noNamespaceSchemaLocation="http://sumo.dlr.de/xsd/routes_file.xsd">
    <vehicle id="0" depart="0.00">
        <route edges="57128181#0 355562350#0 4609242 160346478#0 461905066#0 1113409991 4381554#0 1420751161#0 1144627417#0"/>
    </vehicle>
    <vehicle id="1" depart="50.00">
        <route edges="-1110381759 -1110381761#2 1421507837#0 1132381309 160346478#0 461905066#0"/>
    </vehicle>
    <vehicle id="2" depart="100.00">
        <route edges="461905066#0 1113409991 4381554#0 1420751161#0 1144627417#0 1113400536#0 4381562#0 4381562#2 142629258#2 1421562675#0"/>
    </vehicle>
    <vehicle id="3" depart="150.00">
        <route edges="26584167 -461905066#1 -160346478#4 118814489#0 4609244 -165034514#1 -28241308#7 -28241308#5 -1420229318#1"/>
    </vehicle>
    <vehicle id="4" depart="200.00">
        <route edges="-1166195985#1 180987807#1 929287961 42265639#0 42265639#1 42265639#3 32935480#0 1099698929 355562350#0"/>
    </vehicle>
    <vehicle id="5" depart="250.00">
        <route edges="163208792#0 1420721390#0 32909214#0 32909214#2 1338132400#0 -1144627328#1 -1420751160#1 -1175557861#1 -461905066#1 -160346478#4 118814489#0 4609244 971893836#0 335462896 335462901#0 205795121#0 -1268129677#2 -1267860148#1 -169658770#2"/>
    </vehicle>
    <vehicle id="6" depart="300.00">
        <route edges="-31525750#1 28241308#6 57128181#0 355562350#0 4609242 -971893837 -1421507826"/>
    </vehicle>
    <vehicle id="7" depart="350.00">
        <route edges="-1110381761#2 1421507837#0 1132381309 118814489#0 4609244 971893836#0 335462896 335462901#0 971893832#0 1099699226#0 733416791#0 4377141#12 1268129677#0"/>
    </vehicle>
    <vehicle id="8" depart="400.00">
        <route edges="57128181#0 971893836#0 335462896 335462901#0 205795121#0 -1268129677#2"/>
    </vehicle>
    <vehicle id="9" depart="450.00">
        <route edges="1421562675#0 32909214#2 1338132400#0 -1144627328#1 -1420751160#1 -1175557861#1 -461905066#1 -160346478#4 118814489#0 4609244 971893836#0 335462896 335462901#0 971893832#0 32954833#0 1184718848"/>
    </vehicle>
</routes>
