<?xml version="1.0" encoding="UTF-8"?>

<!-- generated on 2025-11-15 20:04:23.282485 by randomTrips.py UNKNOWN
<configuration>
    <net-file value="/home/ldp21k/Documents/master/code/v1/maps/sp-highway.net.xml"/>
    <output-trip-file value="temp_sim_20251115_200422/routes.rou.xml"/>
    <seed value="1234"/>
    <end value="300.0"/>
    <period value="6.0"/>
</configuration>
-->

<!-- generated on 2025-11-15 20:04:23 by Eclipse SUMO duarouter Version 1.24.0
<duarouterConfiguration xmlns:xsi="http://www.w3.org/2001/XMLSchema-instance" xsi:noNamespaceSchemaLocation="http://sumo.dlr.de/xsd/duarouterConfiguration.xsd">

    <input>
        <net-file value="/home/ldp21k/Documents/master/code/v1/maps/sp-highway.net.xml"/>
        <route-files value="temp_sim_20251115_200422/routes.rou.xml"/>
    </input>

    <output>
        <output-file value="routes.rou.xml"/>
        <alternatives-output value="NUL"/>
    </output>

    <time>
        <begin value="0"/>
        <end value="300.0"/>
    </time>

    <report>
        <no-warnings value="true"/>
        <ignore-errors value="true"/>
        <no-step-log value="true"/>
    </report>

</duarouterConfiguration>
-->

<routes xmlns:xsi="http://www.w3.org/2001/XMLSchema-instance" xsi:noNamespaceSchemaLocation="http://sumo.dlr.de/xsd/routes_file.xsd">
    <vehicle id="0" depart="0.00">
        <route edges="1018356761 214576124 214910611 781660037 840755366 214910977 241191432#1 33972591 717787561 4591331#0 451647286 49670771 1418181048 770958573 940190992 196358845 33972593 574145187 941610842 278752757 278752758 226015624 735859931 241191073 230622150 226015626 735964286 157767082 940207155"/>
    </vehicle>
    <vehicle id="1" depart="6.00">
        <route edges="1060275249 942244335 942316521 942244334 941951441 278752761 278752762 241191432#0 241191432#1 33972591 717787561 4591331#0 451647286 49670771 1418181048 770958573 940190992 196358845 33972593 574145187 941610842 278752757 278752758 226015624 735859931 241191073 230622150 226015626 735964286 157767082 940207155 913830897"/>
    </vehicle>
    <vehicle id="2" depart="12.00">
        <route edges="272867396#1 278752779 278752780#0 278752780#1 942284348 271879065 271879067 942284346 941608263 4327787 771780226 929411067 226030599 151255816 8377572 1177343369 240577357 782258065 1018356758 717755482"/>
    </vehicle>
    <vehicle id="3" depart="18.00">
        <route edges="608424587#1 942237228 942237227 130700024 736235992 942237225 736235993 847241776#0 241191261 942316521 942244334 941951441 278752761 278752762 241191432#0 241191432#1 33972591 717787561 4591331#0 451647286 49670771 1418181048 770958573 940190992 196358845"/>
    </vehicle>
    <vehicle id="4" depart="24.00">
        <route edges="33972593 574145187 941610842 278752757 278752758 4335774 901238406 121596148 901236602 4327803 243013987 196599073 196599072 277374927 277374939"/>
    </vehicle>
    <vehicle id="5" depart="30.00">
        <route edges="185797056 445409048 445409046 241058845 272867385#1 272867393 272867391 747394884 272867396#0 272867396#1 278752779 278752780#0 278752780#1 4328397 271879072 271879070"/>
    </vehicle>
    <vehicle id="6" depart="36.00">
        <route edges="934045118 34875906 15722866#1 15722866#2 15722866#3 240004969 946062934#0 946062934#1 946062934#2 946062934#3 913830893 913345015#0 913345015#1 913345015#2 946062963 184013894 913345003 909432651 26781068 1358227029 171178127 913830887 936109925 34875855"/>
    </vehicle>
    <vehicle id="7" depart="42.00">
        <route edges="913345015#2 946062963 184013894 913345003 909432651 26781068 1358227029 171178127 913830887 936109925 34875855 936109924 936124194#0 936124194#1 936124193 736235997#0 736235997#1 736235997#2 717787563 941951441 278752761 278752762 241191432#0 241191432#1 33972591"/>
    </vehicle>
    <vehicle id="8" depart="48.00">
        <route edges="933955805 30080360#0 30080360#1 30080360#2 946062934#0 946062934#1 946062934#2 946062934#3 913830893 913345015#0 913345015#1 913345015#2 946062963 184013894 913345003 909432651 26781068 1358227029 171178127 913830887 936109925 34875855 936109924 936124194#0 936124194#1 936124193 736235997#0 736235997#1 736235997#2 717787563 941951441 278752761 278752762 572392799 652911546#0 652911546#1 941542661 929411064 271879053"/>
    </vehicle>
    <vehicle id="9" depart="54.00">
        <route edges="163760396 4327801 488389908 736235996 936109923#0 936109923#1 241191074 4328434#1 1060275248 1060275249 942244335 942316521 163760401 847241776#2 278752765 278752766 4614927 941536796 771780227#0 226021411 271879046 271879048 942326716 241191596 278752769 278752770#0 278752770#1 934472068 934472067 272867364 941960154 226030582 934483145 226030550"/>
    </vehicle>
    <vehicle id="10" depart="60.00">
        <route edges="440694745 936870324#0 8140734 440694744 440696833#1 936894811 736235994 736235995 440696834 163760402 736235993 847241776#0 847241776#1 847241776#2 278752765 278752766 4614927 941536796 771780227#0 226021411 271879046 271879048 942326716 241191596 278752769 278752770#0 232355143 278752768 1029021085 934467165"/>
    </vehicle>
    <vehicle id="11" depart="66.00">
        <route edges="736235995 440696834 163760402 736235993 847241776#0 241191261 942316521 942244334 941951441 278752761 278752762 241191432#0 241191432#1 33972591 717787561 4591331#0 451647286 49670771 1418181048 770958573 940190992 196358845 33972593 574145187 941610842 278752757 278752758 226015624 735859931 241191073 735904652"/>
    </vehicle>
    <vehicle id="12" depart="72.00">
        <route edges="272867396#1 278752779 278752780#0 278752780#1 942284348 271879065 271879067 942284346 941608263 4327787 771780226 929411067 226030599 151255816 8377572 1177343369 240577357 782258065 771780224 1018356760 782258064 782258063 771780225 1018356764 782258062"/>
    </vehicle>
    <vehicle id="13" depart="78.00">
        <route edges="79290941 910647309 79290942 278752753 929411066 278752754 735797307 735859931 241191073 230622150 226015626 735964286 157767082 940207155 913830897 604019126 975251300#0 926338187"/>
    </vehicle>
    <vehicle id="14" depart="84.00">
        <route edges="278752778 278752777 941608264 49670785 226030597 942284347 942284346 941608263 4327787 771780226 929411067 226030599 151255816"/>
    </vehicle>
    <vehicle id="15" depart="90.00">
        <route edges="941608266#0 941608266#1 278752773 909173139 278752774#0 278752774#1 49670784#0 49670784#1 271879074 929411069 271879076 929411068 771780226 929411067 226030599 151255816 8377572 1177343369 240577357 782258065 771780224 1018356760 782258064 782258063 771780225 1018356764 782258062 782258061"/>
    </vehicle>
    <vehicle id="16" depart="96.00">
        <route edges="151255811 278752759 278752760 781660034 151255824 942714795 865284752 781660036 781660035 5019970 278752763 278752764 910647325 941951440 652911546#0 652911546#1 941542661 929411064 271879053 941542660 271879056 241191595 941960155 241191596 278752769 278752770#0 278752770#1 226030585 278752771#1"/>
    </vehicle>
    <vehicle id="17" depart="102.00">
        <route edges="4335758#0 4335758#1 909432648 272867403 909432647#0 909432647#1 909432647#2 941541615 272867407 241058950 941608265 574145186 278752778 278752777 941608264 49670785 226030597 942284347 942284346 941608263 4327787 771780226 929411067 226030599 151255816 8377572 1177343369 240577357 782258065 771780224 1018356760 782258064 782258063 771780225 1018356764 782258062"/>
    </vehicle>
    <vehicle id="18" depart="108.00">
        <route edges="678279755#0 678279755#1 934470457 909432648 272867403 909432647#0 909432647#1 909432647#2 941541615 272867407 241058950 941608265 574145186 278752778 278752777 941608264 49670785 226030597 942284347 942284346 941608263"/>
    </vehicle>
    <vehicle id="19" depart="114.00">
        <route edges="770958573 940190992 196358845 33972593 574145187 941610842 278752757 278752758 226015624 735859931"/>
    </vehicle>
    <vehicle id="20" depart="120.00">
        <route edges="909432626 936885297#0 936885297#1 936885296 936885295 939137470#0 939137470#1 939137470#2 939137470#3 240011753 913830893 913345015#0 913345015#1 913345015#2 946062963 184013894 913345003 909432651 26781068 1358227029 171178127 913830887 936109925 34875855 936109924 936124194#0 936124194#1 936124193 736235997#0 736235997#1 736235997#2 717787563 941951441 278752761 278752762 241191432#0 241191432#1 33972591 717787561 4591331#0 451647286 49670771 1418181048 770958573 940190992 196358845"/>
    </vehicle>
    <vehicle id="21" depart="126.00">
        <route edges="440696833#1 936894811 736235994 736235995 440696834 163760402 736235993 847241776#0 847241776#1 847241776#2 278752765 278752766 4614927 941536796 4327786 652911546#1 941542661"/>
    </vehicle>
    <vehicle id="22" depart="132.00">
        <route edges="934473831 272867396#0 272867396#1 278752779 278752780#0 226030596 941608264 49670785 271879063 1052196622 33972594 717787562 4591331#0 451647286 49670771 1418181048 770958573 940190991 33972588 226021412 271879051 241191714 271879048 942326716 241191596 278752769 278752770#0 278752770#1 934472068 934472067"/>
    </vehicle>
    <vehicle id="23" depart="138.00">
        <route edges="34875906 15722866#1 15722866#2 15722866#3 240004969 946062934#0 946062934#1 946062934#2 946062934#3 913830893 913345015#0 913345015#1 913345015#2 946062963 184013894 913345003 909432651 26781068 1358227029 171178127 913830887 936109925 34875855 936109924 936124194#0 936124194#1 936124193 736235997#0 736235997#1 736235997#2 717787563 941951441 278752761"/>
    </vehicle>
    <vehicle id="24" depart="144.00">
        <route edges="941608264 49670785 271879063 1052196622 33972594 717787562 4591331#0 451647286 49670771 1418181048 770958573 940190991 33972588 226021412 271879051 241191714 271879048 241191602 271879043#1 278752772 278752771#0 278752771#1 272867380 272867383#0 272867383#1 29478391#0 29478391#1"/>
    </vehicle>
    <vehicle id="25" depart="150.00">
        <route edges="736235997#0 736235997#1 736235997#2 717787563 941951441 278752761 278752762 241191432#0 241191432#1 33972591 717787561 4591331#0 451647286 49670771 1418181048 770958573 940190992 196358845 33972593 574145187 941610842 278752757 278752758 226015624 735859931 241191073 230622150 226015626 735964286 157767082"/>
    </vehicle>
    <vehicle id="26" depart="156.00">
        <route edges="946062963 184013894 913345003 909432651 26781068 1358227029 171178127 913830887 936109925 34875855 936109924 936124194#0 936124194#1 936124193 736235997#0 736235997#1 736235997#2 717787563 941951441 278752761 278752762 572392799 652911546#0 652911546#1 941542661 929411064 271879053 941542660 271879056"/>
    </vehicle>
    <vehicle id="27" depart="162.00">
        <route edges="771780227#1 271879040 271879043#0 271879043#1 278752772 278752771#0 278752771#1 272867380"/>
    </vehicle>
    <vehicle id="28" depart="168.00">
        <route edges="214910977 241191432#1 33972591 717787561 4591331#0 451647286 49670771 1418181048 770958573 940190992 196358845 33972593 574145187 941610842 278752757 278752758 226015624 735859931 241191073 230622150 226015626 735964286 157767082 940207155 913830897 604019126 975251300#0 975251300#1 277374935 277374941#0 277374941#1 913830896 4327805"/>
    </vehicle>
    <vehicle id="29" depart="174.00">
        <route edges="278752778 278752777 941608264 49670785 226030597 942284347 942284346 771780228 941610842 278752757 278752758 4335774 901238406 121596148 901236602 121596145#0 121596145#1 121596153 277374931"/>
    </vehicle>
    <vehicle id="30" depart="180.00">
        <route edges="241058900 272867400#0 272867400#1 941608265 241058990 278752775 278752776 278752774#1 49670784#0 49670784#1 271879074 929411069"/>
    </vehicle>
    <vehicle id="31" depart="186.00">
        <route edges="272867401 861253891 272867402#0 272867402#1 272867400#0 226149932 272867396#1 278752779 278752780#0 278752780#1 942284348 271879065 271879067 942284346 771780228 941610842 278752757 278752758 4335774 901238406 121596148 901236602 121596145#0 121596145#1 121596153 277374931"/>
    </vehicle>
    <vehicle id="32" depart="192.00">
        <route edges="847241776#0 241191261 942316521 942244334 941951441 278752761 278752762 241191432#0 241191432#1 33972591 717787561 4591331#0 451647286 49670771 1418181048 770958573 940190992 196358845 33972593 574145187 941610842 278752757 278752758 4335774 901238406 121596148 901236602 4327803"/>
    </vehicle>
    <vehicle id="33" depart="198.00">
        <route edges="163760405 936894811 736235994 736235995 440696834 163760402 736235993 847241776#0 241191261 942316521 942244334 941951441 278752761 278752762 241191432#0 241191432#1 33972591 717787561 4591331#0 451647286 49670771 1418181048 770958573 940190992 196358845 33972593 574145187 941610842 278752757 278752758 226015624 735859931 241191073 230622150 226015626 735964286 157767082 940207155"/>
    </vehicle>
    <vehicle id="34" depart="204.00">
        <route edges="574145186 278752778 278752777 941608264 49670785 226030597 942284347 942284346 771780228 941610842 278752757 278752758 4335774 901238406 121596148 901236602 121596145#0 121596145#1 121596153 277374931"/>
    </vehicle>
    <vehicle id="35" depart="210.00">
        <route edges="278752763 278752764 910647325 941951440 652911546#0 652911546#1 941542661 929411064 271879053 941542660 271879056 241191595 941960155 241191596 278752769 278752770#0 232355143 278752768 1029021085 226030584"/>
    </vehicle>
    <vehicle id="36" depart="216.00">
        <route edges="26661320 933955805 30080360#0 30080360#1 30080360#2 946062934#0 946062934#1 946062934#2 946062934#3 913830893 913345015#0 913345015#1 913345015#2 946062963 184013894 913345003 909432651 26781068 1358227029 171178127 913830887 936109925"/>
    </vehicle>
    <vehicle id="37" depart="222.00">
        <route edges="49670785 271879063 1052196622 33972594 717787562 4591331#0 451647286 49670771 1418181048 770958573 940190991 33972588 226021412 271879051 241191714 271879048 942326716 241191596 278752769 278752770#0 278752770#1 934472068 934472067 272867364 941960154 226030582 934483145 934483825#0"/>
    </vehicle>
    <vehicle id="38" depart="228.00">
        <route edges="5019970 278752763 278752764 910647325 941951440 652911546#0 652911546#1 941542661 929411064 271879053 941542660 271879056 241191595 941960155 241191596 278752769 278752770#0 232355143 278752768 1029021085 934467165"/>
    </vehicle>
    <vehicle id="39" depart="234.00">
        <route edges="929411067 226030599 735706231#0 735706231#1 278752755 278752756 735797307 735859931 241191073 230622150 226015626 735964286 157767082 940207155 913830897 604019126 975251300#0 975251300#1 277374935"/>
    </vehicle>
    <vehicle id="40" depart="240.00">
        <route edges="445409048 445409046 241058845 272867385#1 272867393 272867391 747394884 272867396#0 272867396#1 278752779 278752780#0 226030596 941608264 49670785 271879063 1052196622 33972594 717787562 4591331#0 451647286 49670771 1418181048 770958573 940190991 33972588 226021412 271879051 241191714 271879048 241191602 271879043#1 278752772 278752771#0 278752771#1 272867380 272867383#0 226030581"/>
    </vehicle>
    <vehicle id="41" depart="246.00">
        <route edges="941608264 49670785 271879063 1052196622 33972594 717787562 4591331#0 451647286 49670771 1418181048 770958573 940190991 33972588 226021412 271879051 241191714 271879048 241191602 271879043#1 278752772 278752771#0 278752771#1 272867380 272867383#0 226030581 272867367#1"/>
    </vehicle>
    <vehicle id="42" depart="252.00">
        <route edges="584980367#2 934055457 936885301 934055458 913830894 26781049 909432626 936885297#0 936885297#1 936885296 936885295 939137470#0 939137470#1 939137470#2 939137470#3 240011753 913830893 913345015#0 913345015#1 913345015#2 946062963 184013894 913345003 909432651 26781068 1358227029 171178127 913830887 936109925 34875855 936109924 936124194#0 936124194#1 936124193 736235997#0 736235997#1 736235997#2 717787563 941951441 278752761 278752762 572392799 652911546#0 652911546#1 941542661 929411064 271879053 941542660 271879056 241191595 941960155 241191596 278752769 278752770#0 278752770#1 226030585 278752771#1 272867380 272867383#0 272867383#1"/>
    </vehicle>
    <vehicle id="43" depart="258.00">
        <route edges="226149929 941541615 272867407 241058950 941608265 574145186 278752778 278752777 941608264 49670785 271879063 1052196622"/>
    </vehicle>
    <vehicle id="44" depart="264.00">
        <route edges="1018356761 214576124 214910611 781660037 840755366 214910977 241191432#1 33972591 717787561 4591331#0 451647286 49670771 1418181048 770958573 940190992 196358845 33972593 574145187 941610842 278752757 278752758 226015624 735859931 241191073 230622150 226015626 735964286 157767082 940207155"/>
    </vehicle>
    <vehicle id="45" depart="270.00">
        <route edges="1060275249 942244335 942316521 942244334 941951441 278752761 278752762 241191432#0 241191432#1 33972591 717787561 4591331#0 451647286 49670771 1418181048 770958573 940190992 196358845 33972593 574145187 941610842 278752757 278752758 226015624 735859931 241191073 230622150 226015626 735964286 157767082 940207155 913830897"/>
    </vehicle>
    <vehicle id="46" depart="276.00">
        <route edges="272867396#1 278752779 278752780#0 278752780#1 942284348 271879065 271879067 942284346 941608263 4327787 771780226 929411067 226030599 151255816 8377572 1177343369 240577357 782258065 1018356758 717755482"/>
    </vehicle>
    <vehicle id="47" depart="282.00">
        <route edges="608424587#1 942237228 942237227 130700024 736235992 942237225 736235993 847241776#0 241191261 942316521 942244334 941951441 278752761 278752762 241191432#0 241191432#1 33972591 717787561 4591331#0 451647286 49670771 1418181048 770958573 940190992 196358845"/>
    </vehicle>
    <vehicle id="48" depart="288.00">
        <route edges="33972593 574145187 941610842 278752757 278752758 4335774 901238406 121596148 901236602 4327803 243013987 196599073 196599072 277374927 277374939"/>
    </vehicle>
    <vehicle id="49" depart="294.00">
        <route edges="185797056 445409048 445409046 241058845 272867385#1 272867393 272867391 747394884 272867396#0 272867396#1 278752779 278752780#0 278752780#1 4328397 271879072 271879070"/>
    </vehicle>
</routes>
