<?xml version="1.0" encoding="UTF-8"?>

<!-- generated on 2025-11-26 14:58:19.206428 by Eclipse SUMO randomTrips.py UNKNOWN
<configuration>
    <net-file value="/home/ldp21k/Documents/master/code/v1/maps/suburban.net.xml"/>
    <output-trip-file value="temp_simple_20251126_145818/random.rou.xml"/>
    <seed value="6726"/>
    <end value="300.0"/>
    <period value="12.0"/>
</configuration>
-->

<!-- generated on 2025-11-26T14:58:19.193919-03:00 by Eclipse SUMO duarouter 1.25.0
<duarouterConfiguration xmlns:xsi="http://www.w3.org/2001/XMLSchema-instance" xsi:noNamespaceSchemaLocation="http://sumo.dlr.de/xsd/duarouterConfiguration.xsd">

    <input>
        <net-file value="/home/ldp21k/Documents/master/code/v1/maps/suburban.net.xml"/>
        <route-files value="temp_simple_20251126_145818/random.rou.xml"/>
    </input>

    <output>
        <output-file value="routes.rou.xml"/>
        <alternatives-output value="NUL"/>
    </output>

    <time>
        <begin value="0"/>
        <end value="300.0"/>
    </time>

    <report>
        <no-warnings value="true"/>
        <ignore-errors value="true"/>
        <no-step-log value="true"/>
    </report>

</duarouterConfiguration>
-->

<routes xmlns:xsi="http://www.w3.org/2001/XMLSchema-instance" xsi:noNamespaceSchemaLocation="http://sumo.dlr.de/xsd/routes_file.xsd">
    <vehicle id="0" depart="0.00">
        <route edges="-4871597#3 4871597#0 37609020#0 192464203 149843723#0 329984188 1425021824#0 1425021823#0 1425021823#3 1425021823#5 1425021820#1 1425021818#2 -1426699999#3 148521814#0 1426700007#2"/>
    </vehicle>
    <vehicle id="1" depart="12.00">
        <route edges="329983269#0 1393289080#0 1394166951#0 1426700009#0"/>
    </vehicle>
    <vehicle id="2" depart="24.00">
        <route edges="1445972970#0 1426703734#0 1445228015 1426699993#0 1426699993#3 329983269#0 149843723#0 329984188 -1213250743#2 496662788#0"/>
    </vehicle>
    <vehicle id="3" depart="36.00">
        <route edges="1426703734#0 1445228015 1426699993#0 1426699993#3 329983269#0 25199976#0 306376624#0 4871596#0 4871597#0"/>
    </vehicle>
    <vehicle id="4" depart="48.00">
        <route edges="147615858#0 -844553069#3 147615860#4 -1426703732 -1426703738#3"/>
    </vehicle>
    <vehicle id="5" depart="60.00">
        <route edges="-1332160858#3 1426699973#3 233764913#0 1426699993#0 1426699993#3 329983269#0 4517368#0 -501432100 1146920431#0"/>
    </vehicle>
    <vehicle id="6" depart="72.00">
        <route edges="37609020#0 192464203 149843723#0 329984188 1425021824#0 1425021823#0 1425021823#3 1425021823#5 150564116#0 42155330#1"/>
    </vehicle>
    <vehicle id="7" depart="84.00">
        <route edges="1426699993#0 1426699993#3 329983269#0 149843723#0 329984188 1425021824#0"/>
    </vehicle>
    <vehicle id="8" depart="96.00">
        <route edges="-33080181#2 1426703726 33080181#3 1394166951#0 1426699973#3"/>
    </vehicle>
    <vehicle id="9" depart="108.00">
        <route edges="-1146920432 1146920431#0 43336772#0 149843723#0 329984188 1425021824#0 1425021823#0 1425021823#3 184119642#0 -33080181#2"/>
    </vehicle>
    <vehicle id="10" depart="120.00">
        <route edges="1436188653 191525364#1 -191529699#1 -964869605#2 1425021818#2 -1426699999#3 -70367897#8 -70367897#5 1426700002#0"/>
    </vehicle>
    <vehicle id="11" depart="132.00">
        <route edges="-179404218#1 1279378821#0 -1425021858#0 -1208904603#0 1425021792#0 964869605#0 1426703726 33080181#3 1394166951#0"/>
    </vehicle>
    <vehicle id="12" depart="144.00">
        <route edges="-1425021847#1 -1425021858#0 -1208904603#0 -1426699999#3 -1332160858#3 1426699973#3"/>
    </vehicle>
    <vehicle id="13" depart="156.00">
        <route edges="14025482#4 -14025482#5 -14025482#3 -14025482#1 -1425021847#1 -1425021858#0 -1208904603#0 1425021792#0 1425021790#2 1425021820#1"/>
    </vehicle>
    <vehicle id="14" depart="168.00">
        <route edges="-148521800#8 -148521800#5 -718428133#2 -1426700003#2 -718428132#7 -718428132#2 233764913#0 1426699993#0 1426699993#3"/>
    </vehicle>
    <vehicle id="15" depart="180.00">
        <route edges="1267864439#5 -718428132#2 233764913#0 1426699993#0 1426699993#3 329983269#0 149843723#0 329984188 1425021824#0 1425021823#0 1273340895"/>
    </vehicle>
    <vehicle id="16" depart="192.00">
        <route edges="-148521810#3 -148521810#1 -844553071#4 -1426700005#2 -1426700007#1 1426700000#0 1425021792#0 1425021790#2 1425021786#3 30243829#1"/>
    </vehicle>
    <vehicle id="17" depart="204.00">
        <route edges="33080181#3 -1445228014#2 -1426703732 1267864438#0"/>
    </vehicle>
    <vehicle id="18" depart="216.00">
        <route edges="1426699993#0 147615859#0 -844553069#3 -147615857#10 -147615857#6 -147615857#2"/>
    </vehicle>
    <vehicle id="19" depart="228.00">
        <route edges="42738868 -191529699#1 -964869605#2 1425021790#2 1425021786#3 30243829#1 1425063043#0 831660642 1146920605 25199976#0 306376624#0 306376624#1 1145686942#0"/>
    </vehicle>
    <vehicle id="20" depart="240.00">
        <route edges="-604058358#1 -1425021858#0 -1208904603#0 1425021792#0 964869605#0 1426703726 33080181#3 -1445228014#2 -1426599602#1 147615860#4"/>
    </vehicle>
    <vehicle id="21" depart="252.00">
        <route edges="-1426703731#2 33080181#3 -1445228014#2 -1426703732 -1445972970#3 147615857#7"/>
    </vehicle>
    <vehicle id="22" depart="264.00">
        <route edges="64455493#0 718428133#3 -718428133#5"/>
    </vehicle>
    <vehicle id="23" depart="276.00">
        <route edges="1425021820#1 964869605#0 1426703726 33080181#3 -1445228014#2 -1426703732 -1426703738#3"/>
    </vehicle>
    <vehicle id="24" depart="288.00">
        <route edges="-22723999#4 37609020#0 192464203 149843723#0 329984188 1425021824#0 1425021823#0 1425021823#3 1425021823#5 1425021820#1 1425021818#2 1208904602#0 1208904603#1 1425021847#0 1425021847#2 -14025482#1"/>
    </vehicle>
</routes>
