<?xml version="1.0" encoding="UTF-8"?>

<!-- generated on 2025-11-20 20:43:07.861027 by Eclipse SUMO randomTrips.py UNKNOWN
<configuration>
    <net-file value="/home/ldp21k/Documents/master/code/v1/maps/urban_dense.net.xml"/>
    <output-trip-file value="temp_20251120_204307/random.rou.xml"/>
    <seed value="1234"/>
    <end value="300.0"/>
    <period value="15.0"/>
</configuration>
-->

<!-- generated on 2025-11-20T20:43:07.848237-03:00 by Eclipse SUMO duarouter 1.25.0
<duarouterConfiguration xmlns:xsi="http://www.w3.org/2001/XMLSchema-instance" xsi:noNamespaceSchemaLocation="http://sumo.dlr.de/xsd/duarouterConfiguration.xsd">

    <input>
        <net-file value="/home/ldp21k/Documents/master/code/v1/maps/urban_dense.net.xml"/>
        <route-files value="temp_20251120_204307/random.rou.xml"/>
    </input>

    <output>
        <output-file value="routes.rou.xml"/>
        <alternatives-output value="NUL"/>
    </output>

    <time>
        <begin value="0"/>
        <end value="300.0"/>
    </time>

    <report>
        <no-warnings value="true"/>
        <ignore-errors value="true"/>
        <no-step-log value="true"/>
    </report>

</duarouterConfiguration>
-->

<routes xmlns:xsi="http://www.w3.org/2001/XMLSchema-instance" xsi:noNamespaceSchemaLocation="http://sumo.dlr.de/xsd/routes_file.xsd">
    <vehicle id="0" depart="0.00">
        <route edges="756306892 19002403#0 19002357#0 1179820019#2"/>
    </vehicle>
    <vehicle id="1" depart="15.00">
        <route edges="492609985#0 112128418#0 457031289 1020548406 1101404246#0 177372522 295445243 296122995#0 4790839#0 311357732#1 189024466"/>
    </vehicle>
    <vehicle id="2" depart="30.00">
        <route edges="24914141#8 100405009#0 301733776 29177662#0 280939673#0 165450001#0 740538839 1076055688#0 -1168438410"/>
    </vehicle>
    <vehicle id="3" depart="45.00">
        <route edges="301733776 1034560017#0 189133036#0 4790833 293931248 1101404059#0 187103792#0 28679067#0 1095407470#0 -4613306#2"/>
    </vehicle>
    <vehicle id="4" depart="60.00">
        <route edges="-109819340 19801644#0 311690284 187111590 1133761676#0 1133761786 1133761791#0 195407521 1025851956 312357351#0 1133457766#0 1277784875#0 289966281 344594961#1"/>
    </vehicle>
    <vehicle id="5" depart="75.00">
        <route edges="1076055688#0 -1168438410 -1076056354 -168943642#6 312533962#0 246044843#0 313195075 188047750 24540242#0 188044903#0 47016365#0 992933678 19002403#0 -24993933#2 -1396608575 -1157111072#1 -369223458#3 1098856743#0 4613299#0 4613299#2 23294727#0"/>
    </vehicle>
    <vehicle id="6" depart="90.00">
        <route edges="19002357#0 1179820019#2 -1179820254#1 4613292#0 4613308#0 756306892 100405009#0 301733776 29177662#0 280939673#0 165450001#0 740538839 23386522#0 1323456347#4 -168943639#7"/>
    </vehicle>
    <vehicle id="7" depart="105.00">
        <route edges="-23294727#2 -4613299#3 -1323456348#6 -112128825#1 -1396616474"/>
    </vehicle>
    <vehicle id="8" depart="120.00">
        <route edges="-1076055688#0 23386522#0 1323456347#4 -168943639#7 -168943639#4 313195075 188047750 24540242#0 188044903#0 47016365#0 992933678 19002403#0 -24993933#2 -1396608575 -1157111072#1 -369223458#3 -369223458#1 1396608573#1"/>
    </vehicle>
    <vehicle id="9" depart="135.00">
        <route edges="756306892 1105526112#0 112128418#0 457031289 1020548406 1101404246#0 177372522 295445243 296122995#0 4790839#0 4615403#0 1055414262 -1055414262 -1144528529#1"/>
    </vehicle>
    <vehicle id="10" depart="150.00">
        <route edges="1411145237#0 4614989#0 1152640371#0 1410118066#0 232070355#0 1101404246#0 -1408122424#1 -1408266927#1 1353029504"/>
    </vehicle>
    <vehicle id="11" depart="165.00">
        <route edges="188044903#0 1133761676#0 1133761786 66311464#0 82639450 246044848 -1186656843#2"/>
    </vehicle>
    <vehicle id="12" depart="180.00">
        <route edges="177372522 295445243 296122995#0 187103792#0 307098733#0 187103791 311690284 187111590 47016365#0 992933678 112128419#0 -1133992822#1 -979668824#1"/>
    </vehicle>
    <vehicle id="13" depart="195.00">
        <route edges="168943639#5 -1323456347#9 1323456347#4 -168943639#7 -168943639#4 313195075 188047750 24540242#0 188044903#0 1034560017#0 189133036#0 4790833 293931248 1101404059#0 890801131#0 232070355#0 1101404262#0 24914141#8"/>
    </vehicle>
    <vehicle id="14" depart="210.00">
        <route edges="1168438410 -1168438410 -1076056354 -168943642#6 312533962#0 246044843#0 313195075 188047750 24540242#0 188044903#0 47016365#0 992933678 1105526112#0 112128418#0 457031289 1020548406 1101404246#0"/>
    </vehicle>
    <vehicle id="15" depart="225.00">
        <route edges="-4613300#9 4613300#2 -4613299#3 -1323456348#6 -268002748#1 24914141#8 1105526112#0 112128418#0 173197451#0 110464119#0 492609985#0"/>
    </vehicle>
    <vehicle id="16" depart="240.00">
        <route edges="1133761791#0 195407521 1025851956 312357351#0 1133457766#0 1277784875#0 289966281 344594961#1 289830064#0 289830064#1 289966845 289967595#0 82659290 66311464#0 82639450 246044848 312533962#0 246044843#0 168943639#0"/>
    </vehicle>
    <vehicle id="17" depart="255.00">
        <route edges="-1076055688#1 -1168438410 -1076056354 -168943642#6 312533962#0 246044843#0 313195075 188047750 1133761791#0 195407521 1025851956 312357351#0 1133457766#0 1277784875#0 289966281 1267489731#0 1408889642"/>
    </vehicle>
    <vehicle id="18" depart="270.00">
        <route edges="1153905266 289967595#0 82659290 24540242#0 188044903#0 47016365#0 992933678 19002403#0 -24993933#2 -1396608575 -1157111072#1 1157111072#0 1115509343#0"/>
    </vehicle>
    <vehicle id="19" depart="285.00">
        <route edges="-112128825#1 -1396616474 4613302 112128825#0 -268002748#1 24914141#8 19002403#0 19002357#0"/>
    </vehicle>
</routes>
