<?xml version="1.0" encoding="UTF-8"?>

<!-- generated on 2025-11-20 20:01:21.701175 by Eclipse SUMO randomTrips.py UNKNOWN
<configuration>
    <net-file value="/home/ldp21k/Documents/master/code/v1/maps/highway.net.xml"/>
    <output-trip-file value="temp_20251120_200121/random.rou.xml"/>
    <seed value="1234"/>
    <end value="300.0"/>
    <period value="6.0"/>
</configuration>
-->

<!-- generated on 2025-11-20T20:01:21.689675-03:00 by Eclipse SUMO duarouter 1.25.0
<duarouterConfiguration xmlns:xsi="http://www.w3.org/2001/XMLSchema-instance" xsi:noNamespaceSchemaLocation="http://sumo.dlr.de/xsd/duarouterConfiguration.xsd">

    <input>
        <net-file value="/home/ldp21k/Documents/master/code/v1/maps/highway.net.xml"/>
        <route-files value="temp_20251120_200121/random.rou.xml"/>
    </input>

    <output>
        <output-file value="routes.rou.xml"/>
        <alternatives-output value="NUL"/>
    </output>

    <time>
        <begin value="0"/>
        <end value="300.0"/>
    </time>

    <report>
        <no-warnings value="true"/>
        <ignore-errors value="true"/>
        <no-step-log value="true"/>
    </report>

</duarouterConfiguration>
-->

<routes xmlns:xsi="http://www.w3.org/2001/XMLSchema-instance" xsi:noNamespaceSchemaLocation="http://sumo.dlr.de/xsd/routes_file.xsd">
    <vehicle id="0" depart="0.00">
        <route edges="4864872 -11644338#2 -38321181#3 -38321181#1 1212464301#2 28950719#2 28950719#7 1333696411 1431945895 1431945896#0 1239209456#0 1239209456#2"/>
    </vehicle>
    <vehicle id="1" depart="6.00">
        <route edges="-11644338#0 11644338#0 11644338#1 11644338#3 11644338#4 -4810965#2 -4810965#1 4810965#1"/>
    </vehicle>
    <vehicle id="2" depart="12.00">
        <route edges="4810965#2 -11644338#4 -11644982#1 -11644982#0 1432014434#1 4810964#2 1431945896#0 1239209456#0 1239209456#2 4323789#0 1431945931#0"/>
    </vehicle>
    <vehicle id="3" depart="18.00">
        <route edges="1432014427 28950719#7 1333696411 1431945895 1431945896#0 1239209456#0 1431143046#0 22732356#0 1431945915#0 -1431945915#1"/>
    </vehicle>
    <vehicle id="4" depart="24.00">
        <route edges="28950719#7 1333696411 1431945895 1431945896#0 1239209456#0 1431143046#0 4424203#0 4424204 -4424205#2"/>
    </vehicle>
    <vehicle id="5" depart="30.00">
        <route edges="-11644982#0 1432014434#1 4810964#2 1431945896#0 1239209456#0 1239209456#2 4323789#0 1431945902#0 43332476#2"/>
    </vehicle>
    <vehicle id="6" depart="36.00">
        <route edges="-4810965#3 -11644338#4 -11644982#1 1432014427 1239209458#1 1431956186#0"/>
    </vehicle>
    <vehicle id="7" depart="42.00">
        <route edges="1431945929 -1431945927#0 -1431945930#2 43332475#0 1418971157#0 1239209455#0 -1432014432#1 -4810964#0 -1432014434#0 -1432014436"/>
    </vehicle>
    <vehicle id="8" depart="48.00">
        <route edges="-1432014443 -1431956172#1 -1431956174#0"/>
    </vehicle>
    <vehicle id="9" depart="54.00">
        <route edges="-11644338#2 -38321181#3 -38321181#1 1212464301#2 1431956186#0 -4424205#10 -4424205#6 -4424205#2 -4424205#0 1431143047#0"/>
    </vehicle>
    <vehicle id="10" depart="60.00">
        <route edges="4864872 -11644338#2 -38321181#3 -38321181#1 1212464301#2 28950719#2 28950719#7 1333696411 1431945895 1431945896#0 1239209456#0 1239209456#2 4323789#0 1431945902#0 -4844945#3 -1431945904"/>
    </vehicle>
    <vehicle id="11" depart="66.00">
        <route edges="1431945889#0 1431945885#0 1431945890#0 1212464301#2 28950719#2 28950719#7 1333696411 1431945895 1431945896#0 1239209456#0 1418971157#0"/>
    </vehicle>
    <vehicle id="12" depart="72.00">
        <route edges="1431945915#0 1431945915#2 -1431143038 -1431945927#0"/>
    </vehicle>
    <vehicle id="13" depart="78.00">
        <route edges="1431945902#0 43332474#1 1431945931#0 -4441938#2 -4687403"/>
    </vehicle>
    <vehicle id="14" depart="84.00">
        <route edges="1431945891#0 4436710#0 4587956#0 -4424205#14 -1431956185#1 28950719#2 28950719#7 1333696411 1431945895 -1432014432#1 -4810964#0 1432014434#1"/>
    </vehicle>
    <vehicle id="15" depart="90.00">
        <route edges="1239209458#1 1431956186#0 -4424205#10 -4424205#6 -4424205#2 1431945912 1431945915#0 1431143040 -55796450#0"/>
    </vehicle>
    <vehicle id="16" depart="96.00">
        <route edges="1212383626 4810965#1 4810965#2 -11644338#4 -11644982#1 1432014427 28950719#7 1333696411 1431945895"/>
    </vehicle>
    <vehicle id="17" depart="102.00">
        <route edges="-11644338#3 -11644338#2 -38321181#3 -38321181#1 1431945891#0 1431945889#0"/>
    </vehicle>
    <vehicle id="18" depart="108.00">
        <route edges="-1093656441 -4424205#14 -1431956185#1 28950719#2 28950719#7 1333696411 1431945895 -1432014432#1 -4810964#0 -1432014434#0"/>
    </vehicle>
    <vehicle id="19" depart="114.00">
        <route edges="1239209456#2 4323789#0 43332475#0 1418971157#0 1239209455#0 1431945894#0 1239209458#1 1239209458#6 1431945891#0 4436710#0 4587956#0 1093656441"/>
    </vehicle>
    <vehicle id="20" depart="120.00">
        <route edges="-1431143038 -1431945927#0 -1431945930#2 1431945931#0"/>
    </vehicle>
    <vehicle id="21" depart="126.00">
        <route edges="-1432014436 4810962#3 4810963#2 4810964#2 1431945896#0 1239209456#0 1239209456#2 4323789#0 1431945931#0 1431945929 4424208#0 1431945914#1"/>
    </vehicle>
    <vehicle id="22" depart="132.00">
        <route edges="29419667 1431956169 1431945890#0 1432014440#0 38321181#2 11644338#1 -1432014438#1 4864872"/>
    </vehicle>
    <vehicle id="23" depart="138.00">
        <route edges="-1432014424#2 11644982#1 11644338#4 -4810965#2 -4810965#1 -4810965#0"/>
    </vehicle>
    <vehicle id="24" depart="144.00">
        <route edges="-11644982#1 -11644982#0 1432014434#1 -4810963#2 -4810962#3 -4810962#2"/>
    </vehicle>
    <vehicle id="25" depart="150.00">
        <route edges="43332474#1 1431945931#0 1431945929 4424208#0 1431143034#0 -22732202#1"/>
    </vehicle>
    <vehicle id="26" depart="156.00">
        <route edges="-1432014432#1 -4810964#0 1432014428#0 11644982#1 11644338#4 4810965#3 4864872"/>
    </vehicle>
    <vehicle id="27" depart="162.00">
        <route edges="-1432014432#1 4810964#2 1431945894#0 1239209458#1 1431956186#0 -4424205#10 4424205#8"/>
    </vehicle>
    <vehicle id="28" depart="168.00">
        <route edges="-11644982#1 11644982#1 -11644338#3 -11644338#2 -11644338#0 11644338#0"/>
    </vehicle>
    <vehicle id="29" depart="174.00">
        <route edges="-4810965#3 -11644338#4 -11644338#3 -11644338#2 -11644338#0 1432014448#1 1432014446#1 -4864873"/>
    </vehicle>
    <vehicle id="30" depart="180.00">
        <route edges="43332475#0 1431143046#0 22732356#0 1431945915#0 1431143040"/>
    </vehicle>
    <vehicle id="31" depart="186.00">
        <route edges="38365313 4810965#2 -11644338#4 -11644982#1 -11644982#0 1432014434#1 4810964#2 1431945896#0 1239209456#0 1239209456#2 4323789#0 1431945931#0 1431945929 4424208#0 1431143034#0"/>
    </vehicle>
    <vehicle id="32" depart="192.00">
        <route edges="43332475#0 1418971157#0 1239209455#0 -1432014432#1 -4810963#2 -4810962#3 4810962#3"/>
    </vehicle>
    <vehicle id="33" depart="198.00">
        <route edges="11644338#4 -11644338#4 -11644982#1 -11644982#0 1432014434#1 4810964#2 1431945896#0 1239209456#0 1239209456#2 4323789#0 1431945902#0 43332474#1"/>
    </vehicle>
    <vehicle id="34" depart="204.00">
        <route edges="43332475#0 1418971157#0 1239209455#0 -1432014432#1 -4810963#2"/>
    </vehicle>
    <vehicle id="35" depart="210.00">
        <route edges="-1431956185#1 1431956186#0 -4424205#10 -4424205#6 -4424205#2 -4424205#0 -22732356#11"/>
    </vehicle>
    <vehicle id="36" depart="216.00">
        <route edges="11644338#3 -11644982#1 1432014427 1239209458#1 1431956186#0 -1431956185#1"/>
    </vehicle>
    <vehicle id="37" depart="222.00">
        <route edges="1239209458#6 1212464301#2 1431956186#0 -4424205#10 -4424205#6 -4424205#2 4424205#1"/>
    </vehicle>
    <vehicle id="38" depart="228.00">
        <route edges="1431956186#0 -1431956185#1 28950719#2 28950719#7 1333696411 1431945895 -1432014432#1 -4810964#0 1432014428#0"/>
    </vehicle>
    <vehicle id="39" depart="234.00">
        <route edges="-4810965#2 -4810965#1 -4810965#0 1432014435 1432014434#1 4810964#2 1431945896#0 1239209456#0 1431143046#0 22732356#0"/>
    </vehicle>
    <vehicle id="40" depart="240.00">
        <route edges="43332474#1 43332475#0 1418971157#0 1239209455#0 1431945894#0 1239209458#1 1239209458#6 1432014440#0 38321181#2 11644338#1 -1432014438#1"/>
    </vehicle>
    <vehicle id="41" depart="246.00">
        <route edges="4810963#0 4810963#2 4810964#2 1431945896#0 1239209456#0 1239209456#2 4323789#0 1431945931#0 -4441938#2 -4687403"/>
    </vehicle>
    <vehicle id="42" depart="252.00">
        <route edges="-1432014432#1 4810964#2 1431945896#0 1239209456#0 1239209456#2 4323789#0 1431945931#0 1431945929 4424208#0 1431945914#1 4424207#3"/>
    </vehicle>
    <vehicle id="43" depart="258.00">
        <route edges="1445097525 1431956176 1431956174#1 1431956171 1431956169 1431945890#0 1212464301#2 28950719#2 28950719#7 1333696411 1431945895 1431945896#0 1239209456#0 1239209456#2 4323789#0 1431945902#0 43332476#2"/>
    </vehicle>
    <vehicle id="44" depart="264.00">
        <route edges="11644982#1 -11644982#1 -11644982#0 1432014434#1 4810964#2 1431945896#0 1239209456#0 1431143046#0 22732356#0 -1431945912"/>
    </vehicle>
    <vehicle id="45" depart="270.00">
        <route edges="-95843552#0 -95843552#1 -1431143047#2 -22732356#11 1431945915#0 1431945915#2 -1431143038"/>
    </vehicle>
    <vehicle id="46" depart="276.00">
        <route edges="-4441937#1 -1431945927#0 -1431945930#2 43332475#0 1418971157#0 1239209455#0 -1432014432#1 -4810964#0 1432014428#0 11644982#1 -11644982#1"/>
    </vehicle>
    <vehicle id="47" depart="282.00">
        <route edges="1431143034#0 -22732202#1 -1431143038 -1431945927#0"/>
    </vehicle>
    <vehicle id="48" depart="288.00">
        <route edges="4810965#1 4810965#2 -11644338#4 -11644982#1 -11644982#0 1432014434#1 4810964#2 1431945896#0 1239209456#0 1431143046#0 22732356#0"/>
    </vehicle>
    <vehicle id="49" depart="294.00">
        <route edges="-4810963#2 4810963#2 4844877"/>
    </vehicle>
</routes>
