<?xml version="1.0" encoding="UTF-8"?>

<!-- generated on 2025-11-20 15:38:40.391817 by Eclipse SUMO randomTrips.py UNKNOWN
<configuration>
    <net-file value="/home/ldp21k/Documents/master/code/v1/maps/industrial.net.xml"/>
    <output-trip-file value="temp_sim_20251120_153840/random.rou.xml"/>
    <seed value="1234"/>
    <end value="300.0"/>
    <period value="30.0"/>
</configuration>
-->

<!-- generated on 2025-11-20T15:38:40.379934-03:00 by Eclipse SUMO duarouter 1.25.0
<duarouterConfiguration xmlns:xsi="http://www.w3.org/2001/XMLSchema-instance" xsi:noNamespaceSchemaLocation="http://sumo.dlr.de/xsd/duarouterConfiguration.xsd">

    <input>
        <net-file value="/home/ldp21k/Documents/master/code/v1/maps/industrial.net.xml"/>
        <route-files value="temp_sim_20251120_153840/random.rou.xml"/>
    </input>

    <output>
        <output-file value="routes.rou.xml"/>
        <alternatives-output value="NUL"/>
    </output>

    <time>
        <begin value="0"/>
        <end value="300.0"/>
    </time>

    <report>
        <no-warnings value="true"/>
        <ignore-errors value="true"/>
        <no-step-log value="true"/>
    </report>

</duarouterConfiguration>
-->

<routes xmlns:xsi="http://www.w3.org/2001/XMLSchema-instance" xsi:noNamespaceSchemaLocation="http://sumo.dlr.de/xsd/routes_file.xsd">
    <vehicle id="0" depart="0.00">
        <route edges="61389770#3 404955692 48273133#0 36513903#0 970172851 970172852 982221218#0 48273132#0 -1327225731#3 4797955#0 -1306242930 -1327225689#1 1327225689#1"/>
    </vehicle>
    <vehicle id="1" depart="30.00">
        <route edges="-1056150857 -23153824 -23153823 -4804152#3 33066934#0 25394870#0 332573582#0 25394871#0 57387202 37535101#0 970172852 57387201#0 57387371 982221222#0 -492148045#3 -1327225692 -1327225691#1 490349095#0 490349094#0 -5216549#1 5216549#0"/>
    </vehicle>
    <vehicle id="2" depart="60.00">
        <route edges="60219333#0 289227898#2 -1443703568#2 -60219337#1 -123485307 -23029978#3 1327225702#1 1007366759#0 332573585#0 57387371 57387200#0 57387247 1421986451#0 4804146#0 1327522591#1 176374878"/>
    </vehicle>
    <vehicle id="3" depart="90.00">
        <route edges="332573585#0 57387371 57387200#0 57387247 57387199#0 57387202 37535101#0 970172852 982221218#0 48273132#0 -1327225731#3 -1327225752#5"/>
    </vehicle>
    <vehicle id="4" depart="120.00">
        <route edges="4797959#0 -5216436#2 -490349095#2 4797952#0 1327225692 492148045#0 1327522596#0 4804143#0 -4804143#2"/>
    </vehicle>
    <vehicle id="5" depart="150.00">
        <route edges="-1306242931 37535100#0 1327225702#1 1007366759#0 332573585#0 57387371 982221222#0 1327522596#0 4804143#0 4804143#3"/>
    </vehicle>
    <vehicle id="6" depart="180.00">
        <route edges="-52513361#6 52513361#6 52513361#7 1327225751#0 1327225738#1 37535100#0 1327225702#1 1007366759#0 332573585#0 57387371 57387200#0 57387247 57387199#0 57387202 4553966#0 61389770#3 -24970402#3 24969047 -500229567#2 24970402#0"/>
    </vehicle>
    <vehicle id="7" depart="210.00">
        <route edges="24973951 -12817581#1 -176374879#1"/>
    </vehicle>
    <vehicle id="8" depart="240.00">
        <route edges="-26244876#2 -60219337#1 -123485307 -23029978#3 1327225702#1 -261844132#3 -1327522597#4"/>
    </vehicle>
    <vehicle id="9" depart="270.00">
        <route edges="-123485307 -23029978#3 1327225702#1 1007366759#0 332573585#0 57387371 982221222#0 1327522596#0 4804143#0 4804143#3 1327522580"/>
    </vehicle>
</routes>
