<?xml version="1.0" encoding="UTF-8"?>

<!-- generated on 2025-11-15 04:11:25.100341 by randomTrips.py UNKNOWN
<configuration>
    <net-file value="/home/ldp21k/Documents/master/code/v1/maps/1. Simple_Crossroad.net.xml"/>
    <output-trip-file value="temp_sim_20251115_041124/routes.rou.xml"/>
    <seed value="1234"/>
    <end value="120.0"/>
    <period value="12.0"/>
</configuration>
-->

<routes xmlns:xsi="http://www.w3.org/2001/XMLSchema-instance" xsi:noNamespaceSchemaLocation="http://sumo.dlr.de/xsd/routes_file.xsd">
</routes>
