<?xml version="1.0" encoding="UTF-8"?>

<!-- generated on 2025-11-15 15:40:02 by Eclipse SUMO netconvert Version 1.24.0
<netconvertConfiguration xmlns:xsi="http://www.w3.org/2001/XMLSchema-instance" xsi:noNamespaceSchemaLocation="http://sumo.dlr.de/xsd/netconvertConfiguration.xsd">

    <input>
        <type-files value="/usr/share/sumo/data/typemap/osmNetconvert.typ.xml"/>
        <osm-files value="generated_maps/osm_raw/berlin_mini_grid.osm"/>
    </input>

    <output>
        <output-file value="generated_maps/sumo_networks/urban_grid/berlin_mini_grid.net.xml"/>
    </output>

    <projection>
        <proj.utm value="true"/>
        <proj.plain-geo value="true"/>
    </projection>

    <processing>
        <geometry.remove value="true"/>
        <roundabouts.guess value="true"/>
    </processing>

    <tls_building>
        <tls.join value="true"/>
        <tls.guess-signals value="true"/>
    </tls_building>

    <ramp_guessing>
        <ramps.guess value="true"/>
    </ramp_guessing>

    <edge_removal>
        <keep-edges.by-vclass value="passenger"/>
        <remove-edges.isolated value="true"/>
    </edge_removal>

    <junctions>
        <junctions.join value="true"/>
    </junctions>

    <report>
        <verbose value="true"/>
    </report>

</netconvertConfiguration>
-->

<net version="1.20" junctionCornerDetail="5" limitTurnSpeed="5.50" xmlns:xsi="http://www.w3.org/2001/XMLSchema-instance" xsi:noNamespaceSchemaLocation="http://sumo.dlr.de/xsd/net_file.xsd">

    <location netOffset="-390668.37,-5818724.05" convBoundary="0.00,0.00,337.11,211.35" origBoundary="13.387355,52.507707,13.394089,52.510241" projParameter="+proj=utm +zone=33 +ellps=WGS84 +datum=WGS84 +units=m +no_defs"/>

    <type id="highway.living_street" priority="2" numLanes="1" speed="2.78" disallow="tram rail_urban rail rail_electric rail_fast ship container cable_car subway aircraft wheelchair scooter drone" oneway="0"/>
    <type id="highway.residential" priority="3" numLanes="1" speed="13.89" disallow="tram rail_urban rail rail_electric rail_fast ship container cable_car subway aircraft wheelchair scooter drone" oneway="0"/>
    <type id="highway.tertiary" priority="10" numLanes="1" speed="22.22" disallow="tram rail_urban rail rail_electric rail_fast ship container cable_car subway aircraft wheelchair scooter drone" oneway="0"/>

    <edge id=":10556640773_0" function="internal">
        <lane id=":10556640773_0_0" index="0" disallow="pedestrian tram rail_urban rail rail_electric rail_fast ship container cable_car subway aircraft wheelchair scooter drone" speed="3.65" length="4.67" shape="-0.13,193.16 -1.26,192.26 -1.59,191.43 -1.13,190.66 0.13,189.97"/>
    </edge>
    <edge id=":13063804308_0" function="internal">
        <lane id=":13063804308_0_0" index="0" disallow="pedestrian tram rail_urban rail rail_electric rail_fast ship container cable_car subway aircraft wheelchair scooter drone" speed="3.65" length="4.67" shape="337.23,18.84 338.37,19.73 338.70,20.56 338.24,21.33 336.99,22.04"/>
    </edge>
    <edge id=":13063957441_0" function="internal">
        <lane id=":13063957441_0_0" index="0" disallow="pedestrian tram rail_urban rail rail_electric rail_fast ship container cable_car subway aircraft wheelchair scooter drone" speed="3.65" length="4.67" shape="330.20,117.63 331.34,118.51 331.68,119.34 331.21,120.11 329.96,120.82"/>
    </edge>
    <edge id=":13063957449_0" function="internal">
        <lane id=":13063957449_0_0" index="0" disallow="pedestrian tram rail_urban rail rail_electric rail_fast ship container cable_car subway aircraft wheelchair scooter drone" speed="3.65" length="4.67" shape="215.46,-0.08 216.32,-1.24 217.14,-1.60 217.92,-1.16 218.66,0.08"/>
    </edge>
    <edge id=":13075033326_0" function="internal">
        <lane id=":13075033326_0_0" index="0" disallow="pedestrian tram rail_urban rail rail_electric rail_fast ship container cable_car subway aircraft wheelchair scooter drone" speed="3.65" length="4.67" shape="205.90,11.96 204.76,11.07 204.42,10.24 204.88,9.47 206.14,8.77"/>
    </edge>
    <edge id=":13075033333_0" function="internal">
        <lane id=":13075033333_0_0" index="0" disallow="pedestrian tram rail_urban rail rail_electric rail_fast ship container cable_car subway aircraft wheelchair scooter drone" speed="4.56" length="7.30" width="5.00" shape="81.95,12.58 83.34,10.81 84.63,10.28 85.83,10.99 86.94,12.96"/>
    </edge>
    <edge id=":13109448307_0" function="internal">
        <lane id=":13109448307_0_0" index="0" disallow="pedestrian tram rail_urban rail rail_electric rail_fast ship container cable_car subway aircraft wheelchair scooter drone" speed="3.65" length="4.67" shape="189.60,206.06 190.73,206.96 191.05,207.79 190.59,208.56 189.32,209.25"/>
    </edge>
    <edge id=":2098466364_0" function="internal">
        <lane id=":2098466364_0_0" index="0" disallow="pedestrian tram rail_urban rail rail_electric rail_fast ship container cable_car subway aircraft wheelchair scooter drone" speed="4.56" length="7.30" width="5.00" shape="71.68,211.55 70.29,213.32 68.99,213.84 67.79,213.12 66.70,211.15"/>
    </edge>
    <edge id=":25663401_0" function="internal">
        <lane id=":25663401_0_0" index="0" disallow="pedestrian tram rail_urban rail rail_electric rail_fast ship container cable_car subway aircraft wheelchair scooter drone" speed="6.76" length="9.81" width="5.00" shape="79.21,199.74 76.34,199.85 74.22,200.74 72.85,202.39 72.24,204.81"/>
    </edge>
    <edge id=":25663401_1" function="internal">
        <lane id=":25663401_1_0" index="0" disallow="pedestrian tram rail_urban rail rail_electric rail_fast ship container cable_car subway aircraft wheelchair scooter drone" speed="8.33" length="18.02" shape="79.21,199.74 61.25,198.28"/>
    </edge>
    <edge id=":25663401_2" function="internal">
        <lane id=":25663401_2_0" index="0" disallow="pedestrian tram rail_urban rail rail_electric rail_fast ship container cable_car subway aircraft wheelchair scooter drone" speed="8.34" length="15.55" width="5.00" shape="79.21,199.74 75.45,198.67 71.89,196.37 69.31,193.33 68.47,190.01"/>
    </edge>
    <edge id=":25663401_3" function="internal">
        <lane id=":25663401_3_0" index="0" disallow="pedestrian tram rail_urban rail rail_electric rail_fast ship container cable_car subway aircraft wheelchair scooter drone" speed="3.65" length="4.67" shape="79.21,199.74 78.07,198.84 77.74,198.01 78.20,197.25 79.46,196.55"/>
    </edge>
    <edge id=":25663401_4" function="internal">
        <lane id=":25663401_4_0" index="0" disallow="pedestrian tram rail_urban rail rail_electric rail_fast ship container cable_car subway aircraft wheelchair scooter drone" speed="6.92" length="9.77" shape="73.45,190.43 73.65,192.91 74.72,194.75 76.66,195.97 79.46,196.55"/>
    </edge>
    <edge id=":25663401_5" function="internal">
        <lane id=":25663401_5_0" index="0" disallow="pedestrian tram rail_urban rail rail_electric rail_fast ship container cable_car subway aircraft wheelchair scooter drone" speed="13.89" length="14.43" width="5.00" shape="73.45,190.43 72.24,204.81"/>
    </edge>
    <edge id=":25663401_6" function="internal">
        <lane id=":25663401_6_0" index="0" disallow="pedestrian tram rail_urban rail rail_electric rail_fast ship container cable_car subway aircraft wheelchair scooter drone" speed="8.51" length="5.22" shape="73.45,190.43 72.07,193.57 70.69,194.73"/>
    </edge>
    <edge id=":25663401_7" function="internal">
        <lane id=":25663401_7_0" index="0" disallow="pedestrian tram rail_urban rail rail_electric rail_fast ship container cable_car subway aircraft wheelchair scooter drone" speed="4.56" length="2.72" width="5.00" shape="73.45,190.43 72.05,192.20 71.61,192.37"/>
    </edge>
    <edge id=":25663401_16" function="internal">
        <lane id=":25663401_16_0" index="0" disallow="pedestrian tram rail_urban rail rail_electric rail_fast ship container cable_car subway aircraft wheelchair scooter drone" speed="8.51" length="10.34" shape="70.69,194.73 69.02,196.15 65.13,197.83 61.25,198.28"/>
    </edge>
    <edge id=":25663401_17" function="internal">
        <lane id=":25663401_17_0" index="0" disallow="pedestrian tram rail_urban rail rail_electric rail_fast ship container cable_car subway aircraft wheelchair scooter drone" speed="4.56" length="4.58" width="5.00" shape="71.61,192.37 70.75,192.72 69.56,191.99 68.47,190.01"/>
    </edge>
    <edge id=":25663401_8" function="internal">
        <lane id=":25663401_8_0" index="0" disallow="pedestrian tram rail_urban rail rail_electric rail_fast ship container cable_car subway aircraft wheelchair scooter drone" speed="6.76" length="9.80" width="5.00" shape="61.51,195.09 64.37,194.97 66.49,194.08 67.86,192.43 68.47,190.01"/>
    </edge>
    <edge id=":25663401_9" function="internal">
        <lane id=":25663401_9_0" index="0" disallow="pedestrian tram rail_urban rail rail_electric rail_fast ship container cable_car subway aircraft wheelchair scooter drone" speed="8.33" length="18.02" shape="61.51,195.09 79.46,196.55"/>
    </edge>
    <edge id=":25663401_10" function="internal">
        <lane id=":25663401_10_0" index="0" disallow="pedestrian tram rail_urban rail rail_electric rail_fast ship container cable_car subway aircraft wheelchair scooter drone" speed="8.34" length="15.55" width="5.00" shape="61.51,195.09 65.26,196.15 68.82,198.45 71.40,201.49 72.24,204.81"/>
    </edge>
    <edge id=":25663401_11" function="internal">
        <lane id=":25663401_11_0" index="0" disallow="pedestrian tram rail_urban rail rail_electric rail_fast ship container cable_car subway aircraft wheelchair scooter drone" speed="3.65" length="4.67" shape="61.51,195.09 62.64,195.98 62.97,196.81 62.51,197.58 61.25,198.28"/>
    </edge>
    <edge id=":25663401_12" function="internal">
        <lane id=":25663401_12_0" index="0" disallow="pedestrian tram rail_urban rail rail_electric rail_fast ship container cable_car subway aircraft wheelchair scooter drone" speed="6.92" length="9.77" shape="67.26,204.39 67.06,201.91 65.99,200.07 64.05,198.86 61.25,198.28"/>
    </edge>
    <edge id=":25663401_13" function="internal">
        <lane id=":25663401_13_0" index="0" disallow="pedestrian tram rail_urban rail rail_electric rail_fast ship container cable_car subway aircraft wheelchair scooter drone" speed="13.89" length="14.43" width="5.00" shape="67.26,204.39 68.47,190.01"/>
    </edge>
    <edge id=":25663401_14" function="internal">
        <lane id=":25663401_14_0" index="0" disallow="pedestrian tram rail_urban rail rail_electric rail_fast ship container cable_car subway aircraft wheelchair scooter drone" speed="8.51" length="5.23" shape="67.26,204.39 68.64,201.26 70.02,200.09"/>
    </edge>
    <edge id=":25663401_15" function="internal">
        <lane id=":25663401_15_0" index="0" disallow="pedestrian tram rail_urban rail rail_electric rail_fast ship container cable_car subway aircraft wheelchair scooter drone" speed="4.56" length="2.72" width="5.00" shape="67.26,204.39 68.66,202.63 69.10,202.45"/>
    </edge>
    <edge id=":25663401_18" function="internal">
        <lane id=":25663401_18_0" index="0" disallow="pedestrian tram rail_urban rail rail_electric rail_fast ship container cable_car subway aircraft wheelchair scooter drone" speed="8.51" length="10.34" shape="70.02,200.09 71.69,198.67 75.58,196.99 79.46,196.55"/>
    </edge>
    <edge id=":25663401_19" function="internal">
        <lane id=":25663401_19_0" index="0" disallow="pedestrian tram rail_urban rail rail_electric rail_fast ship container cable_car subway aircraft wheelchair scooter drone" speed="4.56" length="4.58" width="5.00" shape="69.10,202.45 69.96,202.11 71.15,202.84 72.24,204.81"/>
    </edge>
    <edge id=":25663405_0" function="internal">
        <lane id=":25663405_0_0" index="0" disallow="pedestrian tram rail_urban rail rail_electric rail_fast ship container cable_car subway aircraft wheelchair scooter drone" speed="3.65" length="4.67" shape="202.67,208.75 201.75,209.86 200.91,210.18 200.16,209.70 199.49,208.42"/>
    </edge>
    <edge id=":25663407_0" function="internal">
        <lane id=":25663407_0_0" index="0" disallow="pedestrian tram rail_urban rail rail_electric rail_fast ship container cable_car subway aircraft wheelchair scooter drone" speed="6.62" length="9.36" shape="216.20,112.29 213.71,112.50 211.87,113.50 210.68,115.28 210.16,117.85"/>
    </edge>
    <edge id=":25663407_1" function="internal">
        <lane id=":25663407_1_0" index="0" disallow="pedestrian tram rail_urban rail rail_electric rail_fast ship container cable_car subway aircraft wheelchair scooter drone" speed="8.33" length="14.60" shape="216.20,112.29 212.52,112.10 208.91,111.99 205.30,111.96 201.62,112.02"/>
    </edge>
    <edge id=":25663407_2" function="internal">
        <lane id=":25663407_2_0" index="0" disallow="pedestrian tram rail_urban rail rail_electric rail_fast ship container cable_car subway aircraft wheelchair scooter drone" speed="7.99" length="14.22" shape="216.20,112.29 212.39,111.49 209.75,109.66 208.30,106.80 208.02,102.91"/>
    </edge>
    <edge id=":25663407_3" function="internal">
        <lane id=":25663407_3_0" index="0" disallow="pedestrian tram rail_urban rail rail_electric rail_fast ship container cable_car subway aircraft wheelchair scooter drone" speed="3.65" length="4.67" shape="216.20,112.29 215.06,111.42 214.71,110.59 215.16,109.82 216.41,109.10"/>
    </edge>
    <edge id=":25663407_4" function="internal">
        <lane id=":25663407_4_0" index="0" disallow="pedestrian tram rail_urban rail rail_electric rail_fast ship container cable_car subway aircraft wheelchair scooter drone" speed="6.49" length="9.03" shape="211.22,103.14 211.39,105.61 212.31,107.43 213.99,108.59 216.41,109.10"/>
    </edge>
    <edge id=":25663407_5" function="internal">
        <lane id=":25663407_5_0" index="0" disallow="pedestrian tram rail_urban rail rail_electric rail_fast ship container cable_car subway aircraft wheelchair scooter drone" speed="8.33" length="14.75" shape="211.22,103.14 210.16,117.85"/>
    </edge>
    <edge id=":25663407_6" function="internal">
        <lane id=":25663407_6_0" index="0" disallow="pedestrian tram rail_urban rail rail_electric rail_fast ship container cable_car subway aircraft wheelchair scooter drone" speed="8.33" length="14.61" shape="211.22,103.14 210.38,106.94 208.50,109.69 205.58,111.38 201.62,112.02"/>
    </edge>
    <edge id=":25663407_7" function="internal">
        <lane id=":25663407_7_0" index="0" disallow="pedestrian tram rail_urban rail rail_electric rail_fast ship container cable_car subway aircraft wheelchair scooter drone" speed="3.65" length="4.67" shape="211.22,103.14 210.33,104.28 209.50,104.62 208.74,104.16 208.02,102.91"/>
    </edge>
    <edge id=":25663407_8" function="internal">
        <lane id=":25663407_8_0" index="0" disallow="pedestrian tram rail_urban rail rail_electric rail_fast ship container cable_car subway aircraft wheelchair scooter drone" speed="6.99" length="9.81" shape="201.54,108.82 204.22,108.39 206.19,107.27 207.46,105.44 208.02,102.91"/>
    </edge>
    <edge id=":25663407_9" function="internal">
        <lane id=":25663407_9_0" index="0" disallow="pedestrian tram rail_urban rail rail_electric rail_fast ship container cable_car subway aircraft wheelchair scooter drone" speed="8.33" length="14.88" shape="201.54,108.82 205.27,108.76 208.98,108.79 212.68,108.90 216.41,109.10"/>
    </edge>
    <edge id=":25663407_10" function="internal">
        <lane id=":25663407_10_0" index="0" disallow="pedestrian tram rail_urban rail rail_electric rail_fast ship container cable_car subway aircraft wheelchair scooter drone" speed="7.84" length="14.56" shape="201.54,108.82 205.54,109.30 208.31,110.96 209.85,113.81 210.16,117.85"/>
    </edge>
    <edge id=":25663407_11" function="internal">
        <lane id=":25663407_11_0" index="0" disallow="pedestrian tram rail_urban rail rail_electric rail_fast ship container cable_car subway aircraft wheelchair scooter drone" speed="3.65" length="4.67" shape="201.54,108.82 202.75,109.59 203.17,110.38 202.80,111.19 201.62,112.02"/>
    </edge>
    <edge id=":25663407_12" function="internal">
        <lane id=":25663407_12_0" index="0" disallow="pedestrian tram rail_urban rail rail_electric rail_fast ship container cable_car subway aircraft wheelchair scooter drone" speed="6.31" length="9.03" shape="206.96,117.62 206.77,115.12 205.82,113.35 204.10,112.31 201.62,112.02"/>
    </edge>
    <edge id=":25663407_13" function="internal">
        <lane id=":25663407_13_0" index="0" disallow="pedestrian tram rail_urban rail rail_electric rail_fast ship container cable_car subway aircraft wheelchair scooter drone" speed="8.33" length="14.75" shape="206.96,117.62 208.02,102.91"/>
    </edge>
    <edge id=":25663407_14" function="internal">
        <lane id=":25663407_14_0" index="0" disallow="pedestrian tram rail_urban rail rail_electric rail_fast ship container cable_car subway aircraft wheelchair scooter drone" speed="8.09" length="14.50" shape="206.96,117.62 207.78,113.68 209.63,110.94 212.51,109.42 216.41,109.10"/>
    </edge>
    <edge id=":25663407_15" function="internal">
        <lane id=":25663407_15_0" index="0" disallow="pedestrian tram rail_urban rail rail_electric rail_fast ship container cable_car subway aircraft wheelchair scooter drone" speed="3.65" length="4.67" shape="206.96,117.62 207.85,116.48 208.67,116.14 209.44,116.60 210.16,117.85"/>
    </edge>
    <edge id=":25663409_0" function="internal">
        <lane id=":25663409_0_0" index="0" disallow="pedestrian tram rail_urban rail rail_electric rail_fast ship container cable_car subway aircraft wheelchair scooter drone" speed="6.77" length="9.86" width="5.00" shape="86.64,103.98 83.76,104.11 81.64,105.01 80.28,106.68 79.68,109.13"/>
    </edge>
    <edge id=":25663409_1" function="internal">
        <lane id=":25663409_1_0" index="0" disallow="pedestrian tram rail_urban rail rail_electric rail_fast ship container cable_car subway aircraft wheelchair scooter drone" speed="8.33" length="18.05" shape="86.64,103.98 68.64,102.64"/>
    </edge>
    <edge id=":25663409_2" function="internal">
        <lane id=":25663409_2_0" index="0" disallow="pedestrian tram rail_urban rail rail_electric rail_fast ship container cable_car subway aircraft wheelchair scooter drone" speed="8.35" length="15.55" width="5.00" shape="86.64,103.98 82.87,102.93 79.30,100.66 76.69,97.64 75.82,94.35"/>
    </edge>
    <edge id=":25663409_3" function="internal">
        <lane id=":25663409_3_0" index="0" disallow="pedestrian tram rail_urban rail rail_electric rail_fast ship container cable_car subway aircraft wheelchair scooter drone" speed="3.65" length="4.67" shape="86.64,103.98 85.50,103.10 85.16,102.28 85.61,101.51 86.86,100.79"/>
    </edge>
    <edge id=":25663409_4" function="internal">
        <lane id=":25663409_4_0" index="0" disallow="pedestrian tram rail_urban rail rail_electric rail_fast ship container cable_car subway aircraft wheelchair scooter drone" speed="6.92" length="9.75" shape="80.80,94.73 81.02,97.19 82.10,99.02 84.05,100.22 86.86,100.79"/>
    </edge>
    <edge id=":25663409_5" function="internal">
        <lane id=":25663409_5_0" index="0" disallow="pedestrian tram rail_urban rail rail_electric rail_fast ship container cable_car subway aircraft wheelchair scooter drone" speed="13.89" length="14.43" width="5.00" shape="80.80,94.73 79.68,109.13"/>
    </edge>
    <edge id=":25663409_6" function="internal">
        <lane id=":25663409_6_0" index="0" disallow="pedestrian tram rail_urban rail rail_electric rail_fast ship container cable_car subway aircraft wheelchair scooter drone" speed="8.50" length="5.23" shape="80.80,94.73 79.43,97.88 78.07,99.05"/>
    </edge>
    <edge id=":25663409_7" function="internal">
        <lane id=":25663409_7_0" index="0" disallow="pedestrian tram rail_urban rail rail_electric rail_fast ship container cable_car subway aircraft wheelchair scooter drone" speed="4.56" length="2.72" width="5.00" shape="80.80,94.73 79.41,96.51 78.97,96.68"/>
    </edge>
    <edge id=":25663409_16" function="internal">
        <lane id=":25663409_16_0" index="0" disallow="pedestrian tram rail_urban rail rail_electric rail_fast ship container cable_car subway aircraft wheelchair scooter drone" speed="8.50" length="10.34" shape="78.07,99.05 76.40,100.48 72.53,102.18 68.64,102.64"/>
    </edge>
    <edge id=":25663409_17" function="internal">
        <lane id=":25663409_17_0" index="0" disallow="pedestrian tram rail_urban rail rail_electric rail_fast ship container cable_car subway aircraft wheelchair scooter drone" speed="4.56" length="4.58" width="5.00" shape="78.97,96.68 78.11,97.03 76.92,96.31 75.82,94.35"/>
    </edge>
    <edge id=":25663409_8" function="internal">
        <lane id=":25663409_8_0" index="0" disallow="pedestrian tram rail_urban rail rail_electric rail_fast ship container cable_car subway aircraft wheelchair scooter drone" speed="6.75" length="9.79" width="5.00" shape="68.90,99.45 71.76,99.32 73.87,98.43 75.22,96.77 75.82,94.35"/>
    </edge>
    <edge id=":25663409_9" function="internal">
        <lane id=":25663409_9_0" index="0" disallow="pedestrian tram rail_urban rail rail_electric rail_fast ship container cable_car subway aircraft wheelchair scooter drone" speed="8.33" length="18.02" shape="68.90,99.45 86.86,100.79"/>
    </edge>
    <edge id=":25663409_10" function="internal">
        <lane id=":25663409_10_0" index="0" disallow="pedestrian tram rail_urban rail rail_electric rail_fast ship container cable_car subway aircraft wheelchair scooter drone" speed="8.35" length="15.55" width="5.00" shape="68.90,99.45 72.66,100.50 76.22,102.78 78.82,105.82 79.68,109.13"/>
    </edge>
    <edge id=":25663409_11" function="internal">
        <lane id=":25663409_11_0" index="0" disallow="pedestrian tram rail_urban rail rail_electric rail_fast ship container cable_car subway aircraft wheelchair scooter drone" speed="3.65" length="4.67" shape="68.90,99.45 70.03,100.34 70.36,101.17 69.90,101.94 68.64,102.64"/>
    </edge>
    <edge id=":25663409_12" function="internal">
        <lane id=":25663409_12_0" index="0" disallow="pedestrian tram rail_urban rail rail_electric rail_fast ship container cable_car subway aircraft wheelchair scooter drone" speed="6.93" length="9.78" shape="74.70,108.74 74.48,106.26 73.40,104.42 71.45,103.21 68.64,102.64"/>
    </edge>
    <edge id=":25663409_13" function="internal">
        <lane id=":25663409_13_0" index="0" disallow="pedestrian tram rail_urban rail rail_electric rail_fast ship container cable_car subway aircraft wheelchair scooter drone" speed="13.89" length="14.43" width="5.00" shape="74.70,108.74 75.82,94.35"/>
    </edge>
    <edge id=":25663409_14" function="internal">
        <lane id=":25663409_14_0" index="0" disallow="pedestrian tram rail_urban rail rail_electric rail_fast ship container cable_car subway aircraft wheelchair scooter drone" speed="8.51" length="5.25" shape="74.70,108.74 76.06,105.58 77.43,104.40"/>
    </edge>
    <edge id=":25663409_15" function="internal">
        <lane id=":25663409_15_0" index="0" disallow="pedestrian tram rail_urban rail rail_electric rail_fast ship container cable_car subway aircraft wheelchair scooter drone" speed="4.56" length="2.72" width="5.00" shape="74.70,108.74 76.09,106.96 76.52,106.79"/>
    </edge>
    <edge id=":25663409_18" function="internal">
        <lane id=":25663409_18_0" index="0" disallow="pedestrian tram rail_urban rail rail_electric rail_fast ship container cable_car subway aircraft wheelchair scooter drone" speed="8.51" length="10.35" shape="77.43,104.40 79.10,102.96 82.97,101.25 86.86,100.79"/>
    </edge>
    <edge id=":25663409_19" function="internal">
        <lane id=":25663409_19_0" index="0" disallow="pedestrian tram rail_urban rail rail_electric rail_fast ship container cable_car subway aircraft wheelchair scooter drone" speed="4.56" length="4.58" width="5.00" shape="76.52,106.79 77.38,106.44 78.58,107.16 79.68,109.13"/>
    </edge>
    <edge id=":25663423_0" function="internal">
        <lane id=":25663423_0_0" index="0" disallow="pedestrian tram rail_urban rail rail_electric rail_fast ship container cable_car subway aircraft wheelchair scooter drone" speed="6.45" length="9.03" shape="223.66,13.28 221.18,13.44 219.37,14.37 218.23,16.05 217.75,18.49"/>
    </edge>
    <edge id=":25663423_1" function="internal">
        <lane id=":25663423_1_0" index="0" disallow="pedestrian tram rail_urban rail rail_electric rail_fast ship container cable_car subway aircraft wheelchair scooter drone" speed="8.33" length="14.56" shape="223.66,13.28 209.13,12.20"/>
    </edge>
    <edge id=":25663423_2" function="internal">
        <lane id=":25663423_2_0" index="0" disallow="pedestrian tram rail_urban rail rail_electric rail_fast ship container cable_car subway aircraft wheelchair scooter drone" speed="8.12" length="14.36" shape="223.66,13.28 219.83,12.44 217.15,10.58 215.63,7.69 215.27,3.79"/>
    </edge>
    <edge id=":25663423_3" function="internal">
        <lane id=":25663423_3_0" index="0" disallow="pedestrian tram rail_urban rail rail_electric rail_fast ship container cable_car subway aircraft wheelchair scooter drone" speed="3.65" length="4.67" shape="223.66,13.28 222.52,12.39 222.18,11.56 222.64,10.79 223.89,10.08"/>
    </edge>
    <edge id=":25663423_4" function="internal">
        <lane id=":25663423_4_0" index="0" disallow="pedestrian tram rail_urban rail rail_electric rail_fast ship container cable_car subway aircraft wheelchair scooter drone" speed="6.65" length="9.29" shape="218.47,3.95 218.70,6.47 219.68,8.34 221.41,9.54 223.89,10.08"/>
    </edge>
    <edge id=":25663423_5" function="internal">
        <lane id=":25663423_5_0" index="0" disallow="pedestrian tram rail_urban rail rail_electric rail_fast ship container cable_car subway aircraft wheelchair scooter drone" speed="8.33" length="14.56" shape="218.47,3.95 217.75,18.49"/>
    </edge>
    <edge id=":25663423_6" function="internal">
        <lane id=":25663423_6_0" index="0" disallow="pedestrian tram rail_urban rail rail_electric rail_fast ship container cable_car subway aircraft wheelchair scooter drone" speed="7.96" length="14.29" shape="218.47,3.95 217.72,7.80 215.92,10.46 213.05,11.93 209.13,12.20"/>
    </edge>
    <edge id=":25663423_7" function="internal">
        <lane id=":25663423_7_0" index="0" disallow="pedestrian tram rail_urban rail rail_electric rail_fast ship container cable_car subway aircraft wheelchair scooter drone" speed="3.65" length="4.67" shape="218.47,3.95 217.61,5.11 216.79,5.47 216.01,5.03 215.27,3.79"/>
    </edge>
    <edge id=":25663423_8" function="internal">
        <lane id=":25663423_8_0" index="0" disallow="pedestrian tram rail_urban rail rail_electric rail_fast ship container cable_car subway aircraft wheelchair scooter drone" speed="6.45" length="9.03" shape="209.37,9.00 211.85,8.84 213.66,7.91 214.80,6.23 215.27,3.79"/>
    </edge>
    <edge id=":25663423_9" function="internal">
        <lane id=":25663423_9_0" index="0" disallow="pedestrian tram rail_urban rail rail_electric rail_fast ship container cable_car subway aircraft wheelchair scooter drone" speed="8.33" length="14.56" shape="209.37,9.00 223.89,10.08"/>
    </edge>
    <edge id=":25663423_10" function="internal">
        <lane id=":25663423_10_0" index="0" disallow="pedestrian tram rail_urban rail rail_electric rail_fast ship container cable_car subway aircraft wheelchair scooter drone" speed="8.12" length="14.36" shape="209.37,9.00 213.20,9.84 215.87,11.70 217.39,14.59 217.75,18.49"/>
    </edge>
    <edge id=":25663423_11" function="internal">
        <lane id=":25663423_11_0" index="0" disallow="pedestrian tram rail_urban rail rail_electric rail_fast ship container cable_car subway aircraft wheelchair scooter drone" speed="3.65" length="4.67" shape="209.37,9.00 210.51,9.89 210.85,10.72 210.39,11.49 209.13,12.20"/>
    </edge>
    <edge id=":25663423_12" function="internal">
        <lane id=":25663423_12_0" index="0" disallow="pedestrian tram rail_urban rail rail_electric rail_fast ship container cable_car subway aircraft wheelchair scooter drone" speed="6.65" length="9.29" shape="214.56,18.33 214.32,15.81 213.34,13.94 211.61,12.74 209.13,12.20"/>
    </edge>
    <edge id=":25663423_13" function="internal">
        <lane id=":25663423_13_0" index="0" disallow="pedestrian tram rail_urban rail rail_electric rail_fast ship container cable_car subway aircraft wheelchair scooter drone" speed="8.33" length="14.56" shape="214.56,18.33 215.27,3.79"/>
    </edge>
    <edge id=":25663423_14" function="internal">
        <lane id=":25663423_14_0" index="0" disallow="pedestrian tram rail_urban rail rail_electric rail_fast ship container cable_car subway aircraft wheelchair scooter drone" speed="7.96" length="14.29" shape="214.56,18.33 215.31,14.48 217.11,11.82 219.97,10.35 223.89,10.08"/>
    </edge>
    <edge id=":25663423_15" function="internal">
        <lane id=":25663423_15_0" index="0" disallow="pedestrian tram rail_urban rail rail_electric rail_fast ship container cable_car subway aircraft wheelchair scooter drone" speed="3.65" length="4.67" shape="214.56,18.33 215.42,17.17 216.23,16.81 217.01,17.25 217.75,18.49"/>
    </edge>
    <edge id=":29208249_0" function="internal">
        <lane id=":29208249_0_0" index="0" disallow="pedestrian tram rail_urban rail rail_electric rail_fast ship container cable_car subway aircraft wheelchair scooter drone" speed="5.56" length="8.92" shape="30.51,99.57 28.05,99.01 26.53,97.81 25.94,95.96 26.28,93.46"/>
    </edge>
    <edge id=":29208249_1" function="internal">
        <lane id=":29208249_1_0" index="0" disallow="pedestrian tram rail_urban rail rail_electric rail_fast ship container cable_car subway aircraft wheelchair scooter drone" speed="3.90" length="2.97" shape="29.35,94.34 29.24,95.17 29.44,95.79 29.94,96.19 30.76,96.38"/>