<?xml version="1.0" encoding="UTF-8"?>

<!-- generated on 2025-10-25 21:51:23 by Eclipse SUMO netconvert Version 1.24.0
<netconvertConfiguration xmlns:xsi="http://www.w3.org/2001/XMLSchema-instance" xsi:noNamespaceSchemaLocation="http://sumo.dlr.de/xsd/netconvertConfiguration.xsd">

    <input>
        <osm-files value="berlim.osm"/>
    </input>

    <output>
        <output-file value="berlim.xml"/>
    </output>

    <projection>
        <proj.utm value="true"/>
    </projection>

</netconvertConfiguration>
-->

<net version="1.20" junctionCornerDetail="5" limitTurnSpeed="5.50" xmlns:xsi="http://www.w3.org/2001/XMLSchema-instance" xsi:noNamespaceSchemaLocation="http://sumo.dlr.de/xsd/net_file.xsd">

    <location netOffset="-390182.44,-5818578.93" convBoundary="0.00,0.00,1531.49,1481.03" origBoundary="13.368759,52.506380,13.406551,52.520210" projParameter="+proj=utm +zone=33 +ellps=WGS84 +datum=WGS84 +units=m +no_defs"/>

    <type id="highway.cycleway" priority="1" numLanes="1" speed="5.56" allow="bicycle" oneway="0" width="2.00"/>
    <type id="highway.footway" priority="1" numLanes="1" speed="2.78" allow="pedestrian" oneway="1" width="2.00"/>
    <type id="highway.living_street" priority="2" numLanes="1" speed="2.78" disallow="tram rail_urban rail rail_electric rail_fast ship container cable_car subway aircraft wheelchair scooter drone" oneway="0"/>
    <type id="highway.path" priority="1" numLanes="1" speed="5.56" allow="pedestrian bicycle" oneway="0" width="2.00"/>
    <type id="highway.pedestrian" priority="1" numLanes="1" speed="2.78" allow="pedestrian" oneway="1" width="2.00"/>
    <type id="highway.primary" priority="12" numLanes="2" speed="27.78" disallow="tram rail_urban rail rail_electric rail_fast ship container cable_car subway aircraft wheelchair scooter drone" oneway="0"/>
    <type id="highway.residential" priority="3" numLanes="1" speed="13.89" disallow="tram rail_urban rail rail_electric rail_fast ship container cable_car subway aircraft wheelchair scooter drone" oneway="0"/>
    <type id="highway.secondary" priority="11" numLanes="1" speed="27.78" disallow="tram rail_urban rail rail_electric rail_fast ship container cable_car subway aircraft wheelchair scooter drone" oneway="0"/>
    <type id="highway.service" priority="1" numLanes="1" speed="5.56" allow="pedestrian delivery bicycle" oneway="0"/>
    <type id="highway.steps" priority="1" numLanes="1" speed="1.39" allow="pedestrian" oneway="1" width="2.00"/>
    <type id="highway.tertiary" priority="10" numLanes="1" speed="22.22" disallow="tram rail_urban rail rail_electric rail_fast ship container cable_car subway aircraft wheelchair scooter drone" oneway="0"/>
    <type id="railway.subway" priority="18" numLanes="1" speed="27.78" allow="subway" oneway="1"/>

    <edge id=":1001074218_0" function="internal">
        <lane id=":1001074218_0_0" index="0" disallow="pedestrian tram rail_urban rail rail_electric rail_fast ship container cable_car subway aircraft wheelchair scooter drone" speed="11.11" length="0.10" shape="991.50,481.83 991.50,481.83"/>
        <lane id=":1001074218_0_1" index="1" disallow="pedestrian tram rail_urban rail rail_electric rail_fast ship container cable_car subway aircraft wheelchair scooter drone" speed="11.11" length="0.10" shape="991.25,485.02 991.25,485.02"/>
        <lane id=":1001074218_0_2" index="2" disallow="pedestrian tram rail_urban rail rail_electric rail_fast ship container cable_car subway aircraft wheelchair scooter drone" speed="11.11" length="0.10" shape="991.01,488.21 991.01,488.21"/>
    </edge>
    <edge id=":10087191503_0" function="internal">
        <lane id=":10087191503_0_0" index="0" allow="pedestrian delivery bicycle" speed="2.78" length="4.67" shape="1364.73,789.92 1366.02,789.28 1366.91,789.33 1367.41,790.07 1367.51,791.51"/>
    </edge>
    <edge id=":10087223667_0" function="internal">
        <lane id=":10087223667_0_0" index="0" allow="pedestrian delivery bicycle" speed="2.78" length="0.10" shape="1340.45,839.48 1340.45,839.48"/>
    </edge>
    <edge id=":10087223667_1" function="internal">
        <lane id=":10087223667_1_0" index="0" allow="pedestrian delivery bicycle" speed="2.78" length="0.10" shape="1337.65,837.93 1337.65,837.93"/>
    </edge>
    <edge id=":10162075200_0" function="internal">
        <lane id=":10162075200_0_0" index="0" disallow="pedestrian tram rail_urban rail rail_electric rail_fast ship container cable_car subway aircraft wheelchair scooter drone" speed="8.33" length="0.31" shape="255.43,813.33 255.12,813.31"/>
    </edge>
    <edge id=":10162075200_1" function="internal">
        <lane id=":10162075200_1_0" index="0" disallow="pedestrian tram rail_urban rail rail_electric rail_fast ship container cable_car subway aircraft wheelchair scooter drone" speed="8.33" length="0.29" shape="255.40,810.12 255.69,810.14"/>
    </edge>
    <edge id=":10162089624_0" function="internal">
        <lane id=":10162089624_0_0" index="0" disallow="pedestrian tram rail_urban rail rail_electric rail_fast ship container cable_car subway aircraft wheelchair scooter drone" speed="8.33" length="0.29" shape="252.41,724.02 252.34,724.31"/>
    </edge>
    <edge id=":10162089624_1" function="internal">
        <lane id=":10162089624_1_0" index="0" disallow="pedestrian tram rail_urban rail rail_electric rail_fast ship container cable_car subway aircraft wheelchair scooter drone" speed="8.33" length="0.31" shape="249.24,723.53 249.31,723.23"/>
    </edge>
    <edge id=":10162100961_0" function="internal">
        <lane id=":10162100961_0_0" index="0" allow="delivery bicycle" speed="4.61" length="4.08" shape="315.53,879.00 314.69,879.12 314.06,879.65 313.63,880.59 313.41,881.95"/>
    </edge>
    <edge id=":10162100961_1" function="internal">
        <lane id=":10162100961_1_0" index="0" allow="delivery bicycle" speed="6.58" length="9.21" shape="315.53,879.00 313.33,878.39 311.85,877.07 311.07,875.03 310.99,872.27"/>
    </edge>
    <edge id=":10162100961_2" function="internal">
        <lane id=":10162100961_2_0" index="0" allow="pedestrian delivery bicycle" speed="3.65" length="4.67" shape="315.53,879.00 314.41,878.09 314.09,877.25 314.56,876.50 315.84,875.82"/>
    </edge>
    <edge id=":10162100961_3" function="internal">
        <lane id=":10162100961_3_0" index="0" allow="delivery bicycle" speed="4.67" length="4.10" shape="314.18,872.55 314.18,873.91 314.46,874.91 315.01,875.54 315.84,875.82"/>
    </edge>
    <edge id=":10162100961_4" function="internal">
        <lane id=":10162100961_4_0" index="0" disallow="pedestrian tram rail_urban rail rail_electric rail_fast ship container cable_car subway aircraft wheelchair scooter drone" speed="13.89" length="9.42" shape="314.18,872.55 313.41,881.95"/>
    </edge>
    <edge id=":10162100961_5" function="internal">
        <lane id=":10162100961_5_0" index="0" disallow="pedestrian tram rail_urban rail rail_electric rail_fast ship container cable_car subway aircraft wheelchair scooter drone" speed="13.89" length="9.47" shape="310.22,881.71 310.99,872.27"/>
    </edge>
    <edge id=":10162100961_6" function="internal">
        <lane id=":10162100961_6_0" index="0" allow="delivery bicycle" speed="6.54" length="3.63" shape="310.22,881.71 310.75,878.94 311.16,878.24"/>
    </edge>
    <edge id=":10162100961_7" function="internal">
        <lane id=":10162100961_7_0" index="0" allow="delivery bicycle" speed="6.54" length="5.67" shape="311.16,878.24 311.86,877.04 313.56,876.00 315.84,875.82"/>
    </edge>
    <edge id=":10203287777_0" function="internal">
        <lane id=":10203287777_0_0" index="0" disallow="pedestrian tram rail_urban rail rail_electric rail_fast ship container cable_car subway aircraft wheelchair scooter drone" speed="8.33" length="0.66" shape="220.25,911.89 220.05,911.88 219.92,911.86 219.78,911.84 219.59,911.79"/>
    </edge>
    <edge id=":10203287777_1" function="internal">
        <lane id=":10203287777_1_0" index="0" disallow="pedestrian tram rail_urban rail rail_electric rail_fast ship container cable_car subway aircraft wheelchair scooter drone" speed="8.33" length="0.17" shape="220.35,908.68 220.40,908.69 220.43,908.70 220.46,908.70 220.51,908.71"/>
    </edge>
    <edge id=":10203287778_0" function="internal">
        <lane id=":10203287778_0_0" index="0" disallow="pedestrian tram rail_urban rail rail_electric rail_fast ship container cable_car subway aircraft wheelchair scooter drone" speed="3.65" length="4.67" shape="198.52,905.28 197.52,904.23 197.30,903.37 197.87,902.67 199.21,902.15"/>
    </edge>
    <edge id=":10210427890_0" function="internal">
        <lane id=":10210427890_0_0" index="0" disallow="pedestrian tram rail_urban rail rail_electric rail_fast ship container cable_car subway aircraft wheelchair scooter drone" speed="8.33" length="0.10" shape="633.12,648.11 633.12,648.11"/>
    </edge>
    <edge id=":10210427890_1" function="internal">
        <lane id=":10210427890_1_0" index="0" disallow="pedestrian tram rail_urban rail rail_electric rail_fast ship container cable_car subway aircraft wheelchair scooter drone" speed="8.33" length="0.10" shape="633.36,644.92 633.36,644.92"/>
    </edge>
    <edge id=":10210483734_0" function="internal">
        <lane id=":10210483734_0_0" index="0" disallow="pedestrian tram rail_urban rail rail_electric rail_fast ship container cable_car subway aircraft wheelchair scooter drone" speed="8.33" length="0.28" shape="639.71,975.06 639.69,975.34"/>
    </edge>
    <edge id=":10286920457_0" function="internal">
        <lane id=":10286920457_0_0" index="0" allow="bicycle" speed="5.56" length="4.48" width="2.00" shape="1302.09,543.01 1303.10,538.64"/>
    </edge>
    <edge id=":10286992714_0" function="internal">
        <lane id=":10286992714_0_0" index="0" allow="pedestrian delivery bicycle" speed="3.65" length="4.67" shape="664.92,499.55 663.79,498.65 663.46,497.82 663.93,497.06 665.20,496.37"/>
    </edge>
    <edge id=":10286992715_0" function="internal">
        <lane id=":10286992715_0_0" index="0" disallow="pedestrian tram rail_urban rail rail_electric rail_fast ship container cable_car subway aircraft wheelchair scooter drone" speed="8.33" length="7.19" shape="676.33,494.25 675.67,501.41"/>
    </edge>
    <edge id=":10286992715_1" function="internal">
        <lane id=":10286992715_1_0" index="0" allow="delivery bicycle" speed="6.09" length="7.77" shape="676.33,494.25 675.89,496.97 675.12,498.88 674.05,499.97 672.65,500.24"/>
    </edge>
    <edge id=":10286992715_2" function="internal">
        <lane id=":10286992715_2_0" index="0" allow="delivery bicycle" speed="5.37" length="5.84" shape="672.93,497.05 674.27,497.43 675.18,498.28 675.64,499.61 675.67,501.41"/>
    </edge>
    <edge id=":10286992715_3" function="internal">
        <lane id=":10286992715_3_0" index="0" allow="pedestrian delivery bicycle" speed="3.65" length="4.67" shape="672.93,497.05 674.06,497.96 674.39,498.79 673.92,499.55 672.65,500.24"/>
    </edge>
    <edge id=":10286992732_0" function="internal">
        <lane id=":10286992732_0_0" index="0" allow="pedestrian delivery bicycle" speed="5.56" length="5.01" shape="684.41,533.75 679.42,533.34"/>
    </edge>
    <edge id=":10286992733_0" function="internal">
        <lane id=":10286992733_0_0" index="0" disallow="pedestrian tram rail_urban rail rail_electric rail_fast ship container cable_car subway aircraft wheelchair scooter drone" speed="8.33" length="5.64" shape="683.64,549.50 678.01,549.87"/>
    </edge>
    <edge id=":10286992733_1" function="internal">
        <lane id=":10286992733_1_0" index="0" disallow="pedestrian tram rail_urban rail rail_electric rail_fast ship container cable_car subway aircraft wheelchair scooter drone" speed="8.33" length="5.65" shape="677.80,546.67 683.44,546.30"/>
    </edge>
    <edge id=":10286992734_0" function="internal">
        <lane id=":10286992734_0_0" index="0" disallow="pedestrian tram rail_urban rail rail_electric rail_fast ship container cable_car subway aircraft wheelchair scooter drone" speed="8.33" length="3.36" shape="672.16,539.42 672.03,542.77"/>
    </edge>
    <edge id=":10286992735_0" function="internal">
        <lane id=":10286992735_0_0" index="0" disallow="pedestrian tram rail_urban rail rail_electric rail_fast ship container cable_car subway aircraft wheelchair scooter drone" speed="8.33" length="5.54" shape="666.18,550.65 660.66,551.00"/>
    </edge>
    <edge id=":10286992735_1" function="internal">
        <lane id=":10286992735_1_0" index="0" disallow="pedestrian tram rail_urban rail rail_electric rail_fast ship container cable_car subway aircraft wheelchair scooter drone" speed="8.33" length="5.44" shape="660.55,547.80 665.98,547.45"/>
    </edge>
    <edge id=":10286992736_0" function="internal">
        <lane id=":10286992736_0_0" index="0" disallow="pedestrian tram rail_urban rail rail_electric rail_fast ship container cable_car subway aircraft wheelchair scooter drone" speed="8.33" length="4.71" shape="671.49,556.16 671.30,560.87"/>
    </edge>
    <edge id=":10286992740_0" function="internal">
        <lane id=":10286992740_0_0" index="0" allow="delivery bicycle" speed="5.04" length="5.00" shape="671.23,561.85 671.32,563.21 671.83,564.22 672.75,564.87 674.09,565.17"/>
    </edge>
    <edge id=":10286992740_1" function="internal">
        <lane id=":10286992740_1_0" index="0" disallow="pedestrian tram rail_urban rail rail_electric rail_fast ship container cable_car subway aircraft wheelchair scooter drone" speed="8.33" length="4.79" shape="671.23,561.85 670.87,566.63"/>
    </edge>
    <edge id=":10286992743_0" function="internal">
        <lane id=":10286992743_0_0" index="0" allow="pedestrian delivery bicycle" speed="3.73" length="4.97" shape="656.32,610.66 655.53,609.35 655.52,608.40 656.27,607.81 657.79,607.59"/>
    </edge>
    <edge id=":10286992744_0" function="internal">
        <lane id=":10286992744_0_0" index="0" disallow="pedestrian tram rail_urban rail rail_electric rail_fast ship container cable_car subway aircraft wheelchair scooter drone" speed="8.33" length="9.40" shape="668.01,605.45 667.32,614.83"/>
    </edge>
    <edge id=":10286992744_1" function="internal">
        <lane id=":10286992744_1_0" index="0" allow="delivery bicycle" speed="6.06" length="7.83" shape="668.01,605.45 667.61,608.20 666.86,610.12 665.77,611.20 664.34,611.46"/>
    </edge>
    <edge id=":10286992744_2" function="internal">
        <lane id=":10286992744_2_0" index="0" allow="delivery bicycle" speed="6.15" length="7.80" shape="664.65,608.28 665.99,608.80 666.88,610.07 667.32,612.08 667.32,614.83"/>
    </edge>
    <edge id=":10286992744_3" function="internal">
        <lane id=":10286992744_3_0" index="0" allow="pedestrian delivery bicycle" speed="3.65" length="4.67" shape="664.65,608.28 665.77,609.19 666.09,610.03 665.61,610.78 664.34,611.46"/>
    </edge>
    <edge id=":10286992750_0" function="internal">
        <lane id=":10286992750_0_0" index="0" disallow="pedestrian tram rail_urban rail rail_electric rail_fast ship container cable_car subway aircraft wheelchair scooter drone" speed="8.33" length="4.55" shape="658.01,649.97 653.47,649.61"/>
    </edge>
    <edge id=":10286992750_1" function="internal">
        <lane id=":10286992750_1_0" index="0" disallow="pedestrian tram rail_urban rail rail_electric rail_fast ship container cable_car subway aircraft wheelchair scooter drone" speed="8.33" length="4.55" shape="653.73,646.42 658.26,646.78"/>
    </edge>
    <edge id=":10286992751_0" function="internal">
        <lane id=":10286992751_0_0" index="0" disallow="pedestrian tram rail_urban rail rail_electric rail_fast ship container cable_car subway aircraft wheelchair scooter drone" speed="8.33" length="4.72" shape="663.10,660.78 663.55,656.07"/>
    </edge>
    <edge id=":10286992752_0" function="internal">
        <lane id=":10286992752_0_0" index="0" disallow="pedestrian tram rail_urban rail rail_electric rail_fast ship container cable_car subway aircraft wheelchair scooter drone" speed="8.33" length="0.29" shape="653.27,649.59 653.56,649.62"/>
    </edge>
    <edge id=":10286992752_1" function="internal">
        <lane id=":10286992752_1_0" index="0" disallow="pedestrian tram rail_urban rail rail_electric rail_fast ship container cable_car subway aircraft wheelchair scooter drone" speed="8.33" length="0.27" shape="653.80,646.43 653.53,646.40"/>
    </edge>
    <edge id=":10286992771_0" function="internal">
        <lane id=":10286992771_0_0" index="0" disallow="pedestrian tram rail_urban rail rail_electric rail_fast ship container cable_car subway aircraft wheelchair scooter drone" speed="8.33" length="4.51" shape="656.88,740.94 657.28,736.45"/>
    </edge>
    <edge id=":10286992772_0" function="internal">
        <lane id=":10286992772_0_0" index="0" disallow="pedestrian tram rail_urban rail rail_electric rail_fast ship container cable_car subway aircraft wheelchair scooter drone" speed="8.33" length="4.38" shape="655.22,758.60 655.59,754.24"/>
    </edge>
    <edge id=":10286992773_0" function="internal">
        <lane id=":10286992773_0_0" index="0" disallow="pedestrian tram rail_urban rail rail_electric rail_fast ship container cable_car subway aircraft wheelchair scooter drone" speed="8.33" length="5.01" shape="649.83,748.57 644.83,748.16"/>
    </edge>
    <edge id=":10286992773_1" function="internal">
        <lane id=":10286992773_1_0" index="0" disallow="pedestrian tram rail_urban rail rail_electric rail_fast ship container cable_car subway aircraft wheelchair scooter drone" speed="8.33" length="5.02" shape="645.10,744.97 650.10,745.38"/>
    </edge>
    <edge id=":10286992778_0" function="internal">
        <lane id=":10286992778_0_0" index="0" disallow="pedestrian tram rail_urban rail rail_electric rail_fast ship container cable_car subway aircraft wheelchair scooter drone" speed="8.33" length="4.73" shape="642.70,847.07 637.99,846.67"/>
    </edge>
    <edge id=":10286992778_1" function="internal">
        <lane id=":10286992778_1_0" index="0" disallow="pedestrian tram rail_urban rail rail_electric rail_fast ship container cable_car subway aircraft wheelchair scooter drone" speed="8.33" length="4.71" shape="638.27,843.49 642.96,843.88"/>
    </edge>
    <edge id=":10286992779_0" function="internal">
        <lane id=":10286992779_0_0" index="0" disallow="pedestrian tram rail_urban rail rail_electric rail_fast ship container cable_car subway aircraft wheelchair scooter drone" speed="8.33" length="5.02" shape="648.86,839.32 649.29,834.31"/>
    </edge>
    <edge id=":10286992780_0" function="internal">
        <lane id=":10286992780_0_0" index="0" disallow="pedestrian tram rail_urban rail rail_electric rail_fast ship container cable_car subway aircraft wheelchair scooter drone" speed="8.33" length="4.21" shape="647.31,856.64 647.70,852.45"/>
    </edge>
    <edge id=":10287056962_0" function="internal">
        <lane id=":10287056962_0_0" index="0" disallow="pedestrian tram rail_urban rail rail_electric rail_fast ship container cable_car subway aircraft wheelchair scooter drone" speed="8.33" length="4.66" shape="635.02,1031.51 633.70,1035.98"/>
    </edge>
    <edge id=":10287056963_0" function="internal">
        <lane id=":10287056963_0_0" index="0" disallow="pedestrian tram rail_urban rail rail_electric rail_fast ship container cable_car subway aircraft wheelchair scooter drone" speed="8.33" length="4.83" shape="645.22,1044.83 640.40,1044.56"/>
    </edge>
    <edge id=":10287056963_1" function="internal">
        <lane id=":10287056963_1_0" index="0" disallow="pedestrian tram rail_urban rail rail_electric rail_fast ship container cable_car subway aircraft wheelchair scooter drone" speed="8.33" length="4.84" shape="640.58,1041.36 645.40,1041.64"/>
    </edge>
    <edge id=":10287056964_0" function="internal">
        <lane id=":10287056964_0_0" index="0" disallow="pedestrian tram rail_urban rail rail_electric rail_fast ship container cable_car subway aircraft wheelchair scooter drone" speed="8.33" length="5.20" shape="627.92,1054.58 629.39,1049.59"/>
    </edge>
    <edge id=":10287056965_0" function="internal">
        <lane id=":10287056965_0_0" index="0" disallow="pedestrian tram rail_urban rail rail_electric rail_fast ship container cable_car subway aircraft wheelchair scooter drone" speed="8.33" length="4.07" shape="625.30,1043.73 621.24,1043.51"/>
    </edge>
    <edge id=":10287056965_1" function="internal">
        <lane id=":10287056965_1_0" index="0" disallow="pedestrian tram rail_urban rail rail_electric rail_fast ship container cable_car subway aircraft wheelchair scooter drone" speed="8.33" length="4.08" shape="621.41,1040.31 625.48,1040.53"/>
    </edge>
    <edge id=":10287056966_0" function="internal">
        <lane id=":10287056966_0_0" index="0" disallow="pedestrian tram rail_urban rail rail_electric rail_fast ship container cable_car subway aircraft wheelchair scooter drone" speed="8.33" length="0.10" shape="645.46,1044.85 645.54,1044.85"/>
    </edge>
    <edge id=":10287056966_1" function="internal">
        <lane id=":10287056966_1_0" index="0" disallow="pedestrian tram rail_urban rail rail_electric rail_fast ship container cable_car subway aircraft wheelchair scooter drone" speed="8.33" length="0.10" shape="645.73,1041.65 645.71,1041.66"/>
    </edge>
    <edge id=":10287056967_0" function="internal">
        <lane id=":10287056967_0_0" index="0" disallow="pedestrian tram rail_urban rail rail_electric rail_fast ship container cable_car subway aircraft wheelchair scooter drone" speed="8.33" length="0.34" shape="621.04,1043.49 621.38,1043.51"/>
    </edge>
    <edge id=":10287056967_1" function="internal">
        <lane id=":10287056967_1_0" index="0" disallow="pedestrian tram rail_urban rail rail_electric rail_fast ship container cable_car subway aircraft wheelchair scooter drone" speed="8.33" length="0.42" shape="621.63,1040.32 621.21,1040.30"/>
    </edge>
    <edge id=":10287205939_0" function="internal">
        <lane id=":10287205939_0_0" index="0" disallow="pedestrian tram rail_urban rail rail_electric rail_fast ship container cable_car subway aircraft wheelchair scooter drone" speed="8.33" length="0.30" shape="489.00,1033.26 488.70,1033.23"/>
    </edge>
    <edge id=":10287205939_1" function="internal">
        <lane id=":10287205939_1_0" index="0" disallow="pedestrian tram rail_urban rail rail_electric rail_fast ship container cable_car subway aircraft wheelchair scooter drone" speed="8.33" length="0.30" shape="488.97,1030.05 489.26,1030.07"/>
    </edge>
    <edge id=":10287205940_0" function="internal">
        <lane id=":10287205940_0_0" index="0" disallow="pedestrian tram rail_urban rail rail_electric rail_fast ship container cable_car subway aircraft wheelchair scooter drone" speed="8.33" length="0.31" shape="518.47,1035.67 518.16,1035.65"/>
    </edge>
    <edge id=":10287205940_1" function="internal">
        <lane id=":10287205940_1_0" index="0" disallow="pedestrian tram rail_urban rail rail_electric rail_fast ship container cable_car subway aircraft wheelchair scooter drone" speed="8.33" length="0.29" shape="518.42,1032.46 518.71,1032.48"/>
    </edge>
    <edge id=":10287205952_0" function="internal">
        <lane id=":10287205952_0_0" index="0" disallow="pedestrian tram rail_urban rail rail_electric rail_fast ship container cable_car subway aircraft wheelchair scooter drone" speed="8.33" length="4.14" shape="529.05,837.79 524.92,837.68"/>
    </edge>
    <edge id=":10287205952_1" function="internal">
        <lane id=":10287205952_1_0" index="0" disallow="pedestrian tram rail_urban rail rail_electric rail_fast ship container cable_car subway aircraft wheelchair scooter drone" speed="8.33" length="4.08" shape="525.01,834.48 529.10,834.59"/>
    </edge>
    <edge id=":10287205954_0" function="internal">
        <lane id=":10287205954_0_0" index="0" disallow="pedestrian tram rail_urban rail rail_electric rail_fast ship container cable_car subway aircraft wheelchair scooter drone" speed="8.33" length="0.86" shape="507.17,837.23 508.03,837.25"/>
    </edge>
    <edge id=":10287205954_1" function="internal">
        <lane id=":10287205954_1_0" index="0" disallow="pedestrian tram rail_urban rail rail_electric rail_fast ship container cable_car subway aircraft wheelchair scooter drone" speed="8.33" length="1.08" shape="508.30,834.06 507.22,834.03"/>
    </edge>
    <edge id=":10287240224_0" function="internal">
        <lane id=":10287240224_0_0" index="0" disallow="pedestrian tram rail_urban rail rail_electric rail_fast ship container cable_car subway aircraft wheelchair scooter drone" speed="8.33" length="4.09" shape="536.30,739.80 532.22,739.58"/>
    </edge>
    <edge id=":10287240224_1" function="internal">
        <lane id=":10287240224_1_0" index="0" disallow="pedestrian tram rail_urban rail rail_electric rail_fast ship container cable_car subway aircraft wheelchair scooter drone" speed="8.33" length="4.09" shape="532.39,736.39 536.48,736.61"/>
    </edge>
    <edge id=":10287240225_0" function="internal">
        <lane id=":10287240225_0_0" index="0" disallow="pedestrian tram rail_urban rail rail_electric rail_fast ship container cable_car subway aircraft wheelchair scooter drone" speed="8.33" length="3.76" shape="518.43,738.85 514.68,738.65"/>
    </edge>
    <edge id=":10287240225_1" function="internal">
        <lane id=":10287240225_1_0" index="0" disallow="pedestrian tram rail_urban rail rail_electric rail_fast ship container cable_car subway aircraft wheelchair scooter drone" speed="8.33" length="3.74" shape="514.86,735.46 518.60,735.66"/>
    </edge>
    <edge id=":10287240226_0" function="internal">
        <lane id=":10287240226_0_0" index="0" disallow="pedestrian tram rail_urban rail rail_electric rail_fast ship container cable_car subway aircraft wheelchair scooter drone" speed="8.33" length="0.27" shape="536.24,739.80 536.50,739.82"/>
    </edge>
    <edge id=":10287240226_1" function="internal">
        <lane id=":10287240226_1_0" index="0" disallow="pedestrian tram rail_urban rail rail_electric rail_fast ship container cable_car subway aircraft wheelchair scooter drone" speed="8.33" length="0.20" shape="536.68,736.62 536.48,736.61"/>
    </edge>
    <edge id=":10287240227_0" function="internal">
        <lane id=":10287240227_0_0" index="0" disallow="pedestrian tram rail_urban rail rail_electric rail_fast ship container cable_car subway aircraft wheelchair scooter drone" speed="8.33" length="0.43" shape="514.48,738.64 514.91,738.66"/>
    </edge>
    <edge id=":10287240227_1" function="internal">
        <lane id=":10287240227_1_0" index="0" disallow="pedestrian tram rail_urban rail rail_electric rail_fast ship container cable_car subway aircraft wheelchair scooter drone" speed="8.33" length="0.51" shape="515.17,735.47 514.66,735.44"/>
    </edge>
    <edge id=":10287240228_0" function="internal">
        <lane id=":10287240228_0_0" index="0" disallow="pedestrian tram rail_urban rail rail_electric rail_fast ship container cable_car subway aircraft wheelchair scooter drone" speed="8.33" length="1.33" shape="546.26,644.03 544.94,643.93"/>
    </edge>
    <edge id=":10287240229_0" function="internal">
        <lane id=":10287240229_0_0" index="0" disallow="pedestrian tram rail_urban rail rail_electric rail_fast ship container cable_car subway aircraft wheelchair scooter drone" speed="8.33" length="3.99" shape="563.06,642.93 561.88,642.85 561.06,642.88 560.27,643.09 559.19,643.55"/>
    </edge>
    <edge id=":10287240229_1" function="internal">
        <lane id=":10287240229_1_0" index="0" disallow="pedestrian tram rail_urban rail rail_electric rail_fast ship container cable_car subway aircraft wheelchair scooter drone" speed="3.65" length="4.67" shape="563.06,642.93 561.92,642.04 561.59,641.21 562.05,640.44 563.31,639.74"/>
    </edge>
    <edge id=":10287240229_2" function="internal">
        <lane id=":10287240229_2_0" index="0" disallow="pedestrian tram rail_urban rail rail_electric rail_fast ship container cable_car subway aircraft wheelchair scooter drone" speed="8.33" length="3.82" shape="559.79,638.48 560.72,639.11 561.42,639.45 562.19,639.63 563.31,639.74"/>
    </edge>
    <edge id=":10287240230_0" function="internal">
        <lane id=":10287240230_0_0" index="0" disallow="pedestrian tram rail_urban rail rail_electric rail_fast ship container cable_car subway aircraft wheelchair scooter drone" speed="8.33" length="3.70" shape="486.71,637.61 485.77,637.07 485.07,636.77 484.33,636.62 483.24,636.51"/>
    </edge>
    <edge id=":10287240230_1" function="internal">
        <lane id=":10287240230_1_0" index="0" disallow="pedestrian tram rail_urban rail rail_electric rail_fast ship container cable_car subway aircraft wheelchair scooter drone" speed="8.33" length="4.45" shape="483.50,633.32 484.81,633.44 485.72,633.47 486.62,633.36 487.88,633.02"/>
    </edge>
    <edge id=":10287240230_2" function="internal">
        <lane id=":10287240230_2_0" index="0" disallow="pedestrian tram rail_urban rail rail_electric rail_fast ship container cable_car subway aircraft wheelchair scooter drone" speed="3.65" length="4.67" shape="483.50,633.32 484.63,634.22 484.96,635.05 484.50,635.81 483.24,636.51"/>
    </edge>
    <edge id=":10287240232_0" function="internal">
        <lane id=":10287240232_0_0" index="0" disallow="pedestrian tram rail_urban rail rail_electric rail_fast ship container cable_car subway aircraft wheelchair scooter drone" speed="8.33" length="0.30" shape="552.29,542.90 551.99,542.87"/>
    </edge>
    <edge id=":10287240232_1" function="internal">
        <lane id=":10287240232_1_0" index="0" disallow="pedestrian tram rail_urban rail rail_electric rail_fast ship container cable_car subway aircraft wheelchair scooter drone" speed="8.33" length="0.29" shape="552.24,539.68 552.53,539.71"/>
    </edge>
    <edge id=":10287240233_0" function="internal">