<?xml version="1.0" encoding="UTF-8"?>

<!-- generated on 2025-11-17T19:25:14.924347-03:00 by Eclipse SUMO netconvert 1.25.0
<netconvertConfiguration xmlns:xsi="http://www.w3.org/2001/XMLSchema-instance" xsi:noNamespaceSchemaLocation="http://sumo.dlr.de/xsd/netconvertConfiguration.xsd">

    <input>
        <osm-files value="research_maps/osm_files/highway.osm"/>
    </input>

    <output>
        <output-file value="research_maps/sumo_xml/highway.net.xml"/>
    </output>

    <projection>
        <proj.utm value="true"/>
    </projection>

    <processing>
        <geometry.remove value="true"/>
        <offset.disable-normalization value="true"/>
        <roundabouts.guess value="true"/>
    </processing>

    <tls_building>
        <tls.discard-simple value="true"/>
        <tls.join value="true"/>
        <tls.guess-signals value="true"/>
    </tls_building>

    <ramp_guessing>
        <ramps.guess value="true"/>
    </ramp_guessing>

    <edge_removal>
        <keep-edges.by-vclass value="passenger"/>
        <remove-edges.by-vclass value="pedestrian,bicycle"/>
    </edge_removal>

    <junctions>
        <junctions.join value="true"/>
        <junctions.join-dist value="15.0"/>
    </junctions>

    <report>
        <verbose value="true"/>
    </report>

</netconvertConfiguration>
-->

<net version="1.20" junctionCornerDetail="5" limitTurnSpeed="5.50" xmlns:xsi="http://www.w3.org/2001/XMLSchema-instance" xsi:noNamespaceSchemaLocation="http://sumo.dlr.de/xsd/net_file.xsd">

    <location netOffset="0.00,0.00" convBoundary="373709.38,5808547.04,375953.06,5810442.29" origBoundary="13.133912,52.399471,13.194222,52.451095" projParameter="+proj=utm +zone=33 +ellps=WGS84 +datum=WGS84 +units=m +no_defs"/>

    <type id="highway.living_street" priority="2" numLanes="1" speed="2.78" disallow="tram rail_urban rail rail_electric rail_fast ship container cable_car subway aircraft wheelchair scooter drone" oneway="0"/>
    <type id="highway.primary" priority="12" numLanes="2" speed="27.78" disallow="tram rail_urban rail rail_electric rail_fast ship container cable_car subway aircraft wheelchair scooter drone" oneway="0"/>
    <type id="highway.residential" priority="3" numLanes="1" speed="13.89" disallow="tram rail_urban rail rail_electric rail_fast ship container cable_car subway aircraft wheelchair scooter drone" oneway="0"/>
    <type id="highway.tertiary" priority="10" numLanes="1" speed="22.22" disallow="tram rail_urban rail rail_electric rail_fast ship container cable_car subway aircraft wheelchair scooter drone" oneway="0"/>

    <edge id=":104058269_0" function="internal">
        <lane id=":104058269_0_0" index="0" disallow="tram rail_urban rail rail_electric rail_fast ship container cable_car subway aircraft wheelchair scooter drone" speed="8.33" length="12.52" shape="374758.46,5809959.65 374755.36,5809958.36 374752.57,5809957.63 374749.69,5809957.29 374746.32,5809957.17"/>
    </edge>
    <edge id=":104058269_1" function="internal">
        <lane id=":104058269_1_0" index="0" disallow="tram rail_urban rail rail_electric rail_fast ship container cable_car subway aircraft wheelchair scooter drone" speed="8.33" length="13.87" shape="374758.46,5809959.65 374755.76,5809957.85 374753.72,5809955.36 374752.34,5809952.18 374751.63,5809948.31"/>
    </edge>
    <edge id=":104058269_2" function="internal">
        <lane id=":104058269_2_0" index="0" disallow="tram rail_urban rail rail_electric rail_fast ship container cable_car subway aircraft wheelchair scooter drone" speed="3.65" length="4.67" shape="374758.46,5809959.65 374757.72,5809958.41 374757.71,5809957.51 374758.41,5809956.96 374759.84,5809956.76"/>
    </edge>
    <edge id=":104058269_3" function="internal">
        <lane id=":104058269_3_0" index="0" disallow="tram rail_urban rail rail_electric rail_fast ship container cable_car subway aircraft wheelchair scooter drone" speed="8.33" length="10.55" shape="374754.82,5809948.02 374755.36,5809951.05 374756.37,5809953.51 374757.87,5809955.42 374759.84,5809956.76"/>
    </edge>
    <edge id=":104058269_4" function="internal">
        <lane id=":104058269_4_0" index="0" disallow="tram rail_urban rail rail_electric rail_fast ship container cable_car subway aircraft wheelchair scooter drone" speed="7.82" length="14.61" shape="374754.82,5809948.02 374754.60,5809952.08 374753.11,5809954.96 374750.35,5809956.65 374746.32,5809957.17"/>
    </edge>
    <edge id=":104058269_5" function="internal">
        <lane id=":104058269_5_0" index="0" disallow="tram rail_urban rail rail_electric rail_fast ship container cable_car subway aircraft wheelchair scooter drone" speed="3.65" length="4.67" shape="374754.82,5809948.02 374754.13,5809949.29 374753.37,5809949.76 374752.54,5809949.43 374751.63,5809948.31"/>
    </edge>
    <edge id=":104058269_6" function="internal">
        <lane id=":104058269_6_0" index="0" disallow="tram rail_urban rail rail_electric rail_fast ship container cable_car subway aircraft wheelchair scooter drone" speed="6.29" length="9.04" shape="374746.37,5809953.97 374748.87,5809953.65 374750.57,5809952.60 374751.50,5809950.82 374751.63,5809948.31"/>
    </edge>
    <edge id=":104058269_7" function="internal">
        <lane id=":104058269_7_0" index="0" disallow="tram rail_urban rail rail_electric rail_fast ship container cable_car subway aircraft wheelchair scooter drone" speed="8.33" length="13.87" shape="374746.37,5809953.97 374749.95,5809954.13 374753.29,5809954.58 374756.54,5809955.42 374759.84,5809956.76"/>
    </edge>
    <edge id=":104058269_8" function="internal">
        <lane id=":104058269_8_0" index="0" disallow="tram rail_urban rail rail_electric rail_fast ship container cable_car subway aircraft wheelchair scooter drone" speed="3.65" length="4.67" shape="374746.37,5809953.97 374747.56,5809954.79 374747.94,5809955.59 374747.53,5809956.39 374746.32,5809957.17"/>
    </edge>
    <edge id=":104058274_0" function="internal">
        <lane id=":104058274_0_0" index="0" disallow="tram rail_urban rail rail_electric rail_fast ship container cable_car subway aircraft wheelchair scooter drone" speed="3.65" length="4.67" shape="374846.31,5810036.68 374846.28,5810038.13 374845.82,5810038.89 374844.93,5810038.98 374843.61,5810038.40"/>
    </edge>
    <edge id=":104061105_0" function="internal">
        <lane id=":104061105_0_0" index="0" disallow="tram rail_urban rail rail_electric rail_fast ship container cable_car subway aircraft wheelchair scooter drone" speed="8.33" length="13.75" shape="374786.97,5809779.50 374784.63,5809782.19 374782.54,5809784.79 374780.72,5809787.56 374779.20,5809790.75"/>
    </edge>
    <edge id=":104061105_1" function="internal">
        <lane id=":104061105_1_0" index="0" disallow="tram rail_urban rail rail_electric rail_fast ship container cable_car subway aircraft wheelchair scooter drone" speed="7.50" length="15.88" shape="374786.97,5809779.50 374783.47,5809782.53 374780.25,5809783.29 374777.30,5809781.79 374774.62,5809778.01"/>
    </edge>
    <edge id=":104061105_2" function="internal">
        <lane id=":104061105_2_0" index="0" disallow="tram rail_urban rail rail_electric rail_fast ship container cable_car subway aircraft wheelchair scooter drone" speed="3.65" length="4.67" shape="374786.97,5809779.50 374785.58,5809779.88 374784.71,5809779.65 374784.37,5809778.83 374784.56,5809777.40"/>
    </edge>
    <edge id=":104061105_3" function="internal">
        <lane id=":104061105_3_0" index="0" disallow="tram rail_urban rail rail_electric rail_fast ship container cable_car subway aircraft wheelchair scooter drone" speed="5.85" length="9.12" shape="374777.46,5809776.54 374779.00,5809778.71 374780.69,5809779.58 374782.55,5809779.14 374784.56,5809777.40"/>
    </edge>
    <edge id=":104061105_4" function="internal">
        <lane id=":104061105_4_0" index="0" disallow="tram rail_urban rail rail_electric rail_fast ship container cable_car subway aircraft wheelchair scooter drone" speed="8.33" length="14.74" shape="374777.46,5809776.54 374779.13,5809780.45 374779.98,5809784.12 374780.00,5809787.55 374779.20,5809790.75"/>
    </edge>
    <edge id=":104061105_5" function="internal">
        <lane id=":104061105_5_0" index="0" disallow="tram rail_urban rail rail_electric rail_fast ship container cable_car subway aircraft wheelchair scooter drone" speed="3.65" length="4.67" shape="374777.46,5809776.54 374777.30,5809777.97 374776.78,5809778.70 374775.88,5809778.71 374774.62,5809778.01"/>
    </edge>
    <edge id=":104061105_6" function="internal">
        <lane id=":104061105_6_0" index="0" disallow="tram rail_urban rail rail_electric rail_fast ship container cable_car subway aircraft wheelchair scooter drone" speed="8.33" length="11.85" shape="374776.29,5809789.40 374776.87,5809786.95 374776.78,5809784.24 374776.03,5809781.26 374774.62,5809778.01"/>
    </edge>
    <edge id=":104061105_7" function="internal">
        <lane id=":104061105_7_0" index="0" disallow="tram rail_urban rail rail_electric rail_fast ship container cable_car subway aircraft wheelchair scooter drone" speed="8.33" length="14.65" shape="374776.29,5809789.40 374777.89,5809786.10 374779.88,5809783.07 374782.13,5809780.21 374784.56,5809777.40"/>
    </edge>
    <edge id=":104061105_8" function="internal">
        <lane id=":104061105_8_0" index="0" disallow="tram rail_urban rail rail_electric rail_fast ship container cable_car subway aircraft wheelchair scooter drone" speed="3.65" length="4.68" shape="374776.29,5809789.40 374777.52,5809788.65 374778.41,5809788.62 374778.97,5809789.32 374779.20,5809790.75"/>
    </edge>
    <edge id=":104065067_0" function="internal">
        <lane id=":104065067_0_0" index="0" disallow="tram rail_urban rail rail_electric rail_fast ship container cable_car subway aircraft wheelchair scooter drone" speed="8.33" length="16.25" shape="374930.87,5809706.55 374934.06,5809704.09 374937.29,5809701.30 374939.97,5809698.15 374941.52,5809694.66"/>
    </edge>
    <edge id=":104065067_1" function="internal">
        <lane id=":104065067_1_0" index="0" disallow="tram rail_urban rail rail_electric rail_fast ship container cable_car subway aircraft wheelchair scooter drone" speed="3.65" length="4.67" shape="374930.87,5809706.55 374932.31,5809706.45 374933.11,5809706.84 374933.28,5809707.72 374932.81,5809709.09"/>
    </edge>
    <edge id=":104065067_2" function="internal">
        <lane id=":104065067_2_0" index="0" disallow="tram rail_urban rail rail_electric rail_fast ship container cable_car subway aircraft wheelchair scooter drone" speed="5.46" length="10.06" shape="374937.65,5809712.18 374938.04,5809708.91 374937.36,5809707.31 374935.62,5809707.37 374932.81,5809709.09"/>
    </edge>
    <edge id=":104065067_3" function="internal">
        <lane id=":104065067_3_0" index="0" disallow="tram rail_urban rail rail_electric rail_fast ship container cable_car subway aircraft wheelchair scooter drone" speed="8.33" length="17.94" shape="374937.65,5809712.18 374941.52,5809694.66"/>
    </edge>
    <edge id=":104067182_0" function="internal">
        <lane id=":104067182_0_0" index="0" disallow="tram rail_urban rail rail_electric rail_fast ship container cable_car subway aircraft wheelchair scooter drone" speed="6.01" length="9.08" shape="374562.03,5809644.08 374559.60,5809643.19 374557.66,5809643.41 374556.23,5809644.72 374555.30,5809647.14"/>
    </edge>
    <edge id=":104067182_1" function="internal">
        <lane id=":104067182_1_0" index="0" disallow="tram rail_urban rail rail_electric rail_fast ship container cable_car subway aircraft wheelchair scooter drone" speed="8.33" length="14.75" shape="374562.03,5809644.08 374558.51,5809641.67 374556.24,5809638.88 374555.22,5809635.71 374555.45,5809632.16"/>
    </edge>
    <edge id=":104067182_2" function="internal">
        <lane id=":104067182_2_0" index="0" disallow="tram rail_urban rail rail_electric rail_fast ship container cable_car subway aircraft wheelchair scooter drone" speed="3.65" length="4.67" shape="374562.03,5809644.08 374561.35,5809642.81 374561.38,5809641.92 374562.11,5809641.40 374563.55,5809641.26"/>
    </edge>
    <edge id=":104067182_3" function="internal">
        <lane id=":104067182_3_0" index="0" disallow="tram rail_urban rail rail_electric rail_fast ship container cable_car subway aircraft wheelchair scooter drone" speed="7.75" length="10.55" shape="374558.57,5809632.88 374558.45,5809635.31 374559.23,5809637.52 374560.93,5809639.50 374563.55,5809641.26"/>
    </edge>
    <edge id=":104067182_4" function="internal">
        <lane id=":104067182_4_0" index="0" disallow="tram rail_urban rail rail_electric rail_fast ship container cable_car subway aircraft wheelchair scooter drone" speed="8.33" length="14.64" shape="374558.57,5809632.88 374555.30,5809647.14"/>
    </edge>
    <edge id=":104067182_5" function="internal">
        <lane id=":104067182_5_0" index="0" disallow="tram rail_urban rail rail_electric rail_fast ship container cable_car subway aircraft wheelchair scooter drone" speed="3.65" length="4.67" shape="374558.57,5809632.88 374557.52,5809633.87 374556.66,5809634.08 374555.97,5809633.51 374555.45,5809632.16"/>
    </edge>
    <edge id=":104067182_6" function="internal">
        <lane id=":104067182_6_0" index="0" disallow="tram rail_urban rail rail_electric rail_fast ship container cable_car subway aircraft wheelchair scooter drone" speed="8.33" length="14.64" shape="374552.18,5809646.43 374555.45,5809632.16"/>
    </edge>
    <edge id=":104067182_7" function="internal">
        <lane id=":104067182_7_0" index="0" disallow="tram rail_urban rail rail_electric rail_fast ship container cable_car subway aircraft wheelchair scooter drone" speed="7.61" length="15.32" shape="374552.18,5809646.43 374553.75,5809642.34 374556.17,5809640.12 374559.44,5809639.76 374563.55,5809641.26"/>
    </edge>
    <edge id=":104067182_8" function="internal">
        <lane id=":104067182_8_0" index="0" disallow="tram rail_urban rail rail_electric rail_fast ship container cable_car subway aircraft wheelchair scooter drone" speed="3.65" length="4.67" shape="374552.18,5809646.43 374553.23,5809645.44 374554.10,5809645.23 374554.79,5809645.80 374555.30,5809647.14"/>
    </edge>
    <edge id=":104071806_0" function="internal">
        <lane id=":104071806_0_0" index="0" disallow="tram rail_urban rail rail_electric rail_fast ship container cable_car subway aircraft wheelchair scooter drone" speed="8.33" length="11.62" shape="374674.47,5809754.34 374671.63,5809755.87 374669.48,5809757.32 374667.57,5809759.05 374665.44,5809761.47"/>
    </edge>
    <edge id=":104071806_1" function="internal">
        <lane id=":104071806_1_0" index="0" disallow="tram rail_urban rail rail_electric rail_fast ship container cable_car subway aircraft wheelchair scooter drone" speed="8.03" length="13.08" shape="374674.47,5809754.34 374671.14,5809755.50 374668.13,5809755.40 374665.46,5809754.02 374663.11,5809751.38"/>
    </edge>
    <edge id=":104071806_2" function="internal">
        <lane id=":104071806_2_0" index="0" disallow="tram rail_urban rail rail_electric rail_fast ship container cable_car subway aircraft wheelchair scooter drone" speed="3.65" length="4.67" shape="374674.47,5809754.34 374673.04,5809754.17 374672.32,5809753.65 374672.31,5809752.75 374673.01,5809751.49"/>
    </edge>
    <edge id=":104071806_3" function="internal">
        <lane id=":104071806_3_0" index="0" disallow="tram rail_urban rail rail_electric rail_fast ship container cable_car subway aircraft wheelchair scooter drone" speed="6.53" length="8.32" shape="374665.78,5809749.61 374667.27,5809751.29 374668.97,5809752.17 374670.89,5809752.23 374673.01,5809751.49"/>
    </edge>
    <edge id=":104071806_4" function="internal">
        <lane id=":104071806_4_0" index="0" disallow="tram rail_urban rail rail_electric rail_fast ship container cable_car subway aircraft wheelchair scooter drone" speed="8.33" length="12.82" shape="374665.78,5809749.61 374667.34,5809752.73 374667.80,5809755.75 374667.17,5809758.66 374665.44,5809761.47"/>
    </edge>
    <edge id=":104071806_5" function="internal">
        <lane id=":104071806_5_0" index="0" disallow="tram rail_urban rail rail_electric rail_fast ship container cable_car subway aircraft wheelchair scooter drone" speed="3.65" length="4.67" shape="374665.78,5809749.61 374665.78,5809751.05 374665.33,5809751.82 374664.44,5809751.93 374663.11,5809751.38"/>
    </edge>
    <edge id=":104071806_6" function="internal">
        <lane id=":104071806_6_0" index="0" disallow="tram rail_urban rail rail_electric rail_fast ship container cable_car subway aircraft wheelchair scooter drone" speed="7.17" length="8.70" shape="374662.97,5809759.42 374664.12,5809757.54 374664.53,5809755.58 374664.20,5809753.52 374663.11,5809751.38"/>
    </edge>
    <edge id=":104071806_7" function="internal">
        <lane id=":104071806_7_0" index="0" disallow="tram rail_urban rail rail_electric rail_fast ship container cable_car subway aircraft wheelchair scooter drone" speed="8.33" length="12.90" shape="374662.97,5809759.42 374665.26,5809756.88 374667.52,5809754.87 374670.01,5809753.15 374673.01,5809751.49"/>
    </edge>
    <edge id=":104071806_8" function="internal">
        <lane id=":104071806_8_0" index="0" disallow="tram rail_urban rail rail_electric rail_fast ship container cable_car subway aircraft wheelchair scooter drone" speed="3.65" length="4.67" shape="374662.97,5809759.42 374664.36,5809759.01 374665.23,5809759.21 374665.59,5809760.03 374665.44,5809761.47"/>
    </edge>
    <edge id=":104073087_0" function="internal">
        <lane id=":104073087_0_0" index="0" disallow="tram rail_urban rail rail_electric rail_fast ship container cable_car subway aircraft wheelchair scooter drone" speed="8.33" length="14.93" shape="374619.77,5809688.10 374608.19,5809678.68"/>
    </edge>
    <edge id=":104073087_1" function="internal">
        <lane id=":104073087_1_0" index="0" disallow="tram rail_urban rail rail_electric rail_fast ship container cable_car subway aircraft wheelchair scooter drone" speed="7.49" length="15.97" shape="374619.77,5809688.10 374616.59,5809684.69 374615.72,5809681.48 374617.17,5809678.50 374620.93,5809675.73"/>
    </edge>
    <edge id=":104073087_2" function="internal">
        <lane id=":104073087_2_0" index="0" disallow="tram rail_urban rail rail_electric rail_fast ship container cable_car subway aircraft wheelchair scooter drone" speed="3.65" length="4.67" shape="374619.77,5809688.10 374619.34,5809686.73 374619.54,5809685.85 374620.35,5809685.49 374621.79,5809685.62"/>
    </edge>
    <edge id=":104073087_3" function="internal">
        <lane id=":104073087_3_0" index="0" disallow="tram rail_urban rail rail_electric rail_fast ship container cable_car subway aircraft wheelchair scooter drone" speed="5.82" length="9.13" shape="374622.45,5809678.55 374620.30,5809680.13 374619.47,5809681.84 374619.97,5809683.67 374621.79,5809685.62"/>
    </edge>
    <edge id=":104073087_4" function="internal">
        <lane id=":104073087_4_0" index="0" disallow="tram rail_urban rail rail_electric rail_fast ship container cable_car subway aircraft wheelchair scooter drone" speed="8.33" length="15.16" shape="374622.45,5809678.55 374618.31,5809680.31 374614.55,5809680.93 374611.18,5809680.38 374608.19,5809678.68"/>
    </edge>
    <edge id=":104073087_5" function="internal">
        <lane id=":104073087_5_0" index="0" disallow="tram rail_urban rail rail_electric rail_fast ship container cable_car subway aircraft wheelchair scooter drone" speed="3.65" length="4.67" shape="374622.45,5809678.55 374621.01,5809678.41 374620.28,5809677.90 374620.25,5809677.01 374620.93,5809675.73"/>
    </edge>
    <edge id=":104073087_6" function="internal">
        <lane id=":104073087_6_0" index="0" disallow="tram rail_urban rail rail_electric rail_fast ship container cable_car subway aircraft wheelchair scooter drone" speed="8.33" length="11.38" shape="374610.21,5809676.20 374612.35,5809677.37 374614.85,5809677.69 374617.71,5809677.14 374620.93,5809675.73"/>
    </edge>
    <edge id=":104073087_7" function="internal">
        <lane id=":104073087_7_0" index="0" disallow="tram rail_urban rail rail_electric rail_fast ship container cable_car subway aircraft wheelchair scooter drone" speed="8.33" length="14.93" shape="374610.21,5809676.20 374621.79,5809685.62"/>
    </edge>
    <edge id=":104073087_8" function="internal">
        <lane id=":104073087_8_0" index="0" disallow="tram rail_urban rail rail_electric rail_fast ship container cable_car subway aircraft wheelchair scooter drone" speed="3.65" length="4.67" shape="374610.21,5809676.20 374610.63,5809677.58 374610.44,5809678.45 374609.62,5809678.82 374608.19,5809678.68"/>
    </edge>
    <edge id=":1044621591_0" function="internal">
        <lane id=":1044621591_0_0" index="0" disallow="tram rail_urban rail rail_electric rail_fast ship container cable_car subway aircraft wheelchair scooter drone" speed="3.65" length="4.67" shape="373999.83,5808567.51 374001.16,5808566.94 374002.05,5808567.03 374002.50,5808567.80 374002.53,5808569.25"/>
    </edge>
    <edge id=":11002230595_0" function="internal">
        <lane id=":11002230595_0_0" index="0" disallow="tram rail_urban rail rail_electric rail_fast ship container cable_car subway aircraft wheelchair scooter drone" speed="8.33" length="1.37" shape="374386.35,5808565.97 374386.01,5808566.19 374385.77,5808566.33 374385.51,5808566.43 374385.11,5808566.54"/>
    </edge>
    <edge id=":11002230595_1" function="internal">
        <lane id=":11002230595_1_0" index="0" disallow="tram rail_urban rail rail_electric rail_fast ship container cable_car subway aircraft wheelchair scooter drone" speed="8.33" length="0.21" shape="374384.82,5808563.31 374384.62,5808563.27"/>
    </edge>
    <edge id=":11232547882_0" function="internal">
        <lane id=":11232547882_0_0" index="0" disallow="tram rail_urban rail rail_electric rail_fast ship container cable_car subway aircraft wheelchair scooter drone" speed="5.55" length="9.76" shape="374620.62,5809910.10 374618.02,5809910.15 374616.43,5809911.27 374614.95,5809912.99 374612.65,5809914.83"/>
    </edge>
    <edge id=":11232547882_1" function="internal">
        <lane id=":11232547882_1_0" index="0" disallow="tram rail_urban rail rail_electric rail_fast ship container cable_car subway aircraft wheelchair scooter drone" speed="8.33" length="14.50" shape="374620.62,5809910.10 374606.38,5809907.36"/>
    </edge>
    <edge id=":11232547882_2" function="internal">
        <lane id=":11232547882_2_0" index="0" disallow="tram rail_urban rail rail_electric rail_fast ship container cable_car subway aircraft wheelchair scooter drone" speed="3.65" length="1.44" shape="374620.62,5809910.10 374619.59,5809909.09"/>
    </edge>
    <edge id=":11232547882_9" function="internal">
        <lane id=":11232547882_9_0" index="0" disallow="tram rail_urban rail rail_electric rail_fast ship container cable_car subway aircraft wheelchair scooter drone" speed="3.65" length="3.23" shape="374619.59,5809909.09 374619.35,5809908.23 374619.89,5809907.52 374621.22,5809906.96"/>
    </edge>
    <edge id=":11232547882_3" function="internal">
        <lane id=":11232547882_3_0" index="0" disallow="tram rail_urban rail rail_electric rail_fast ship container cable_car subway aircraft wheelchair scooter drone" speed="8.33" length="14.50" shape="374606.98,5809904.21 374621.22,5809906.96"/>
    </edge>
    <edge id=":11232547882_4" function="internal">
        <lane id=":11232547882_4_0" index="0" disallow="tram rail_urban rail rail_electric rail_fast ship container cable_car subway aircraft wheelchair scooter drone" speed="5.55" length="7.51" shape="374606.98,5809904.21 374614.08,5809906.18 374614.20,5809906.26"/>
    </edge>
    <edge id=":11232547882_5" function="internal">
        <lane id=":11232547882_5_0" index="0" disallow="tram rail_urban rail rail_electric rail_fast ship container cable_car subway aircraft wheelchair scooter drone" speed="3.65" length="1.44" shape="374606.98,5809904.21 374608.01,5809905.23"/>
    </edge>
    <edge id=":11232547882_10" function="internal">
        <lane id=":11232547882_10_0" index="0" disallow="tram rail_urban rail rail_electric rail_fast ship container cable_car subway aircraft wheelchair scooter drone" speed="5.55" length="12.30" shape="374614.20,5809906.26 374617.40,5809908.60 374616.92,5809911.49 374612.65,5809914.83"/>
    </edge>
    <edge id=":11232547882_11" function="internal">
        <lane id=":11232547882_11_0" index="0" disallow="tram rail_urban rail rail_electric rail_fast ship container cable_car subway aircraft wheelchair scooter drone" speed="3.65" length="3.23" shape="374608.01,5809905.23 374608.25,5809906.09 374607.71,5809906.80 374606.38,5809907.36"/>
    </edge>
    <edge id=":11232547882_6" function="internal">
        <lane id=":11232547882_6_0" index="0" disallow="tram rail_urban rail rail_electric rail_fast ship container cable_car subway aircraft wheelchair scooter drone" speed="5.55" length="10.74" shape="374609.10,5809913.19 374611.51,5809911.33 374611.85,5809909.74 374610.14,5809908.41 374606.38,5809907.36"/>
    </edge>
    <edge id=":11232547882_7" function="internal">
        <lane id=":11232547882_7_0" index="0" disallow="tram rail_urban rail rail_electric rail_fast ship container cable_car subway aircraft wheelchair scooter drone" speed="5.55" length="14.02" shape="374609.10,5809913.19 374612.13,5809911.02 374614.94,5809908.78 374617.87,5809907.18 374621.22,5809906.96"/>
    </edge>
    <edge id=":11232547882_8" function="internal">
        <lane id=":11232547882_8_0" index="0" disallow="tram rail_urban rail rail_electric rail_fast ship container cable_car subway aircraft wheelchair scooter drone" speed="2.78" length="5.71" shape="374609.10,5809913.19 374610.60,5809912.27 374611.70,5809912.23 374612.38,5809913.09 374612.65,5809914.83"/>
    </edge>
    <edge id=":11512102351_0" function="internal">
        <lane id=":11512102351_0_0" index="0" disallow="tram rail_urban rail rail_electric rail_fast ship container cable_car subway aircraft wheelchair scooter drone" speed="11.11" length="0.10" shape="374322.17,5809211.97 374322.17,5809211.97"/>
        <lane id=":11512102351_0_1" index="1" disallow="tram rail_urban rail rail_electric rail_fast ship container cable_car subway aircraft wheelchair scooter drone" speed="11.11" length="0.10" shape="374321.75,5809215.15 374321.75,5809215.15"/>
    </edge>
    <edge id=":11512102352_0" function="internal">
        <lane id=":11512102352_0_0" index="0" disallow="tram rail_urban rail rail_electric rail_fast ship container cable_car subway aircraft wheelchair scooter drone" speed="11.11" length="0.10" shape="374320.15,5809223.89 374320.15,5809223.89"/>
        <lane id=":11512102352_0_1" index="1" disallow="tram rail_urban rail rail_electric rail_fast ship container cable_car subway aircraft wheelchair scooter drone" speed="11.11" length="0.10" shape="374320.57,5809220.71 374320.57,5809220.71"/>
    </edge>
    <edge id=":13161915947_0" function="internal">
        <lane id=":13161915947_0_0" index="0" disallow="tram rail_urban rail rail_electric rail_fast ship container cable_car subway aircraft wheelchair scooter drone" speed="3.65" length="4.67" shape="375921.93,5809236.39 375922.34,5809237.77 375922.14,5809238.64 375921.32,5809239.00 375919.89,5809238.85"/>
    </edge>
    <edge id=":1359479674_0" function="internal">
        <lane id=":1359479674_0_0" index="0" disallow="pedestrian tram rail_urban rail rail_electric rail_fast ship container cable_car subway aircraft wheelchair scooter drone" speed="13.89" length="8.19" shape="375849.18,5809341.18 375851.03,5809339.62 375852.06,5809338.27 375853.10,5809336.92 375854.98,5809335.40"/>
        <lane id=":1359479674_0_1" index="1" disallow="pedestrian tram rail_urban rail rail_electric rail_fast ship container cable_car subway aircraft wheelchair scooter drone" speed="13.89" length="8.19" shape="375850.98,5809343.83 375852.82,5809342.28 375853.84,5809340.93 375854.86,5809339.59 375856.72,5809338.08"/>
        <lane id=":1359479674_0_2" index="2" disallow="pedestrian tram rail_urban rail rail_electric rail_fast ship container cable_car subway aircraft wheelchair scooter drone" speed="13.89" length="8.19" shape="375850.98,5809343.83 375853.09,5809342.70 375854.71,5809342.27 375856.34,5809341.85 375858.47,5809340.76"/>
    </edge>
    <edge id=":243844353_0" function="internal">
        <lane id=":243844353_0_0" index="0" disallow="tram rail_urban rail rail_electric rail_fast ship container cable_car subway aircraft wheelchair scooter drone" speed="6.57" length="9.11" shape="373814.33,5809004.53 373812.23,5809003.15 373810.19,5809002.75 373808.22,5809003.34 373806.32,5809004.91"/>
    </edge>
    <edge id=":243844353_1" function="internal">
        <lane id=":243844353_1_0" index="0" disallow="tram rail_urban rail rail_electric rail_fast ship container cable_car subway aircraft wheelchair scooter drone" speed="7.97" length="14.25" shape="373814.33,5809004.53 373811.78,5809001.56 373810.82,5808998.49 373811.44,5808995.34 373813.63,5808992.10"/>
    </edge>
    <edge id=":243844353_2" function="internal">
        <lane id=":243844353_2_0" index="0" disallow="tram rail_urban rail rail_electric rail_fast ship container cable_car subway aircraft wheelchair scooter drone" speed="3.65" length="4.67" shape="373814.33,5809004.53 373813.95,5809003.14 373814.18,5809002.27 373815.01,5809001.94 373816.44,5809002.13"/>
    </edge>
    <edge id=":243844353_3" function="internal">
        <lane id=":243844353_3_0" index="0" disallow="tram rail_urban rail rail_electric rail_fast ship container cable_car subway aircraft wheelchair scooter drone" speed="6.47" length="9.03" shape="373816.00,5808994.25 373814.61,5808996.30 373814.22,5808998.30 373814.83,5809000.24 373816.44,5809002.13"/>
    </edge>
    <edge id=":243844353_4" function="internal">