<?xml version="1.0" encoding="UTF-8"?>

<!-- generated on 2025-11-16T20:26:10.033078-03:00 by Eclipse SUMO netconvert 1.25.0
<netconvertConfiguration xmlns:xsi="http://www.w3.org/2001/XMLSchema-instance" xsi:noNamespaceSchemaLocation="http://sumo.dlr.de/xsd/netconvertConfiguration.xsd">

    <input>
        <osm-files value="optimized_maps/osm_files/highway.osm"/>
    </input>

    <output>
        <output-file value="optimized_maps/sumo_xml/highway.net.xml"/>
    </output>

    <projection>
        <proj.utm value="true"/>
    </projection>

    <processing>
        <geometry.remove value="true"/>
        <roundabouts.guess value="true"/>
    </processing>

    <tls_building>
        <tls.discard-simple value="true"/>
        <tls.join value="true"/>
        <tls.guess-signals value="true"/>
    </tls_building>

    <ramp_guessing>
        <ramps.guess value="true"/>
    </ramp_guessing>

    <junctions>
        <junctions.join value="true"/>
    </junctions>

</netconvertConfiguration>
-->

<net version="1.20" junctionCornerDetail="5" limitTurnSpeed="5.50" xmlns:xsi="http://www.w3.org/2001/XMLSchema-instance" xsi:noNamespaceSchemaLocation="http://sumo.dlr.de/xsd/net_file.xsd">

    <location netOffset="-576552.49,-4168706.47" convBoundary="0.00,0.00,1886.24,1852.95" origBoundary="-122.132368,37.658156,-122.110573,37.679010" projParameter="+proj=utm +zone=10 +ellps=WGS84 +datum=WGS84 +units=m +no_defs"/>

    <type id="highway.footway" priority="1" numLanes="1" speed="2.78" allow="pedestrian" oneway="1" width="2.00"/>
    <type id="highway.path" priority="1" numLanes="1" speed="5.56" allow="pedestrian bicycle" oneway="0" width="2.00"/>
    <type id="highway.primary" priority="12" numLanes="2" speed="27.78" disallow="tram rail_urban rail rail_electric rail_fast ship container cable_car subway aircraft wheelchair scooter drone" oneway="0"/>
    <type id="highway.residential" priority="3" numLanes="1" speed="13.89" disallow="tram rail_urban rail rail_electric rail_fast ship container cable_car subway aircraft wheelchair scooter drone" oneway="0"/>
    <type id="highway.secondary" priority="11" numLanes="1" speed="27.78" disallow="tram rail_urban rail rail_electric rail_fast ship container cable_car subway aircraft wheelchair scooter drone" oneway="0"/>
    <type id="highway.service" priority="1" numLanes="1" speed="5.56" allow="pedestrian delivery bicycle" oneway="0"/>
    <type id="highway.tertiary" priority="10" numLanes="1" speed="22.22" disallow="tram rail_urban rail rail_electric rail_fast ship container cable_car subway aircraft wheelchair scooter drone" oneway="0"/>
    <type id="highway.unclassified" priority="4" numLanes="1" speed="13.89" disallow="tram rail_urban rail rail_electric rail_fast ship container cable_car subway aircraft wheelchair scooter drone" oneway="0"/>

    <edge id=":10119653166_0" function="internal">
        <lane id=":10119653166_0_0" index="0" allow="pedestrian delivery bicycle" speed="3.65" length="4.67" shape="895.31,867.33 894.06,868.05 893.17,868.05 892.63,867.34 892.45,865.91"/>
    </edge>
    <edge id=":10119653173_0" function="internal">
        <lane id=":10119653173_0_0" index="0" allow="pedestrian delivery bicycle" speed="5.22" length="5.20" shape="932.37,801.02 931.09,800.62 929.93,800.75 928.91,801.41 928.03,802.60"/>
    </edge>
    <edge id=":10119653173_1" function="internal">
        <lane id=":10119653173_1_0" index="0" disallow="tram rail_urban rail rail_electric rail_fast ship container cable_car subway aircraft wheelchair scooter drone" speed="13.89" length="9.40" shape="932.37,801.02 923.96,796.84"/>
    </edge>
    <edge id=":10119653173_2" function="internal">
        <lane id=":10119653173_2_0" index="0" allow="pedestrian delivery bicycle" speed="4.99" length="5.06" shape="925.24,801.03 925.74,799.73 925.70,798.60 925.10,797.63 923.96,796.84"/>
    </edge>
    <edge id=":10119653173_3" function="internal">
        <lane id=":10119653173_3_0" index="0" allow="pedestrian delivery bicycle" speed="3.65" length="4.67" shape="925.24,801.03 926.53,800.38 927.42,800.42 927.92,801.16 928.03,802.60"/>
    </edge>
    <edge id=":1236943387_0" function="internal">
        <lane id=":1236943387_0_0" index="0" allow="pedestrian delivery bicycle" speed="5.41" length="5.43" shape="951.18,528.79 949.94,528.34 948.75,528.43 947.61,529.06 946.52,530.24"/>
    </edge>
    <edge id=":1236943387_1" function="internal">
        <lane id=":1236943387_1_0" index="0" disallow="tram rail_urban rail rail_electric rail_fast ship container cable_car subway aircraft wheelchair scooter drone" speed="13.89" length="9.42" shape="951.18,528.79 943.04,524.06"/>
    </edge>
    <edge id=":1236943387_2" function="internal">
        <lane id=":1236943387_2_0" index="0" disallow="tram rail_urban rail rail_electric rail_fast ship container cable_car subway aircraft wheelchair scooter drone" speed="13.89" length="9.39" shape="944.66,521.30 952.78,526.02"/>
    </edge>
    <edge id=":1236943387_3" function="internal">
        <lane id=":1236943387_3_0" index="0" allow="pedestrian delivery bicycle" speed="6.79" length="3.33" shape="944.66,521.30 946.97,523.15 947.14,523.48"/>
    </edge>
    <edge id=":1236943387_7" function="internal">
        <lane id=":1236943387_7_0" index="0" allow="pedestrian delivery bicycle" speed="6.79" length="7.33" shape="947.14,523.48 948.06,525.26 947.91,527.62 946.52,530.24"/>
    </edge>
    <edge id=":1236943387_4" function="internal">
        <lane id=":1236943387_4_0" index="0" allow="pedestrian delivery bicycle" speed="4.94" length="5.12" shape="943.93,528.36 944.60,527.10 944.67,525.96 944.15,524.95 943.04,524.06"/>
    </edge>
    <edge id=":1236943387_5" function="internal">
        <lane id=":1236943387_5_0" index="0" allow="pedestrian delivery bicycle" speed="7.15" length="10.19" shape="943.93,528.36 945.91,526.25 948.05,525.16 950.34,525.08 952.78,526.02"/>
    </edge>
    <edge id=":1236943387_6" function="internal">
        <lane id=":1236943387_6_0" index="0" allow="pedestrian delivery bicycle" speed="3.65" length="4.67" shape="943.93,528.36 945.29,527.86 946.17,528.01 946.58,528.80 946.52,530.24"/>
    </edge>
    <edge id=":1236943388_0" function="internal">
        <lane id=":1236943388_0_0" index="0" allow="pedestrian delivery bicycle" speed="9.72" length="5.41" shape="819.31,737.86 817.84,737.34 816.70,737.35 815.55,737.38 814.07,736.88"/>
    </edge>
    <edge id=":1236943388_1" function="internal">
        <lane id=":1236943388_1_0" index="0" allow="pedestrian delivery bicycle" speed="3.65" length="1.29" shape="815.54,734.04 816.16,735.17"/>
    </edge>
    <edge id=":1236943388_2" function="internal">
        <lane id=":1236943388_2_0" index="0" allow="pedestrian delivery bicycle" speed="3.65" length="3.39" shape="816.16,735.17 816.24,735.31 816.22,736.20 815.50,736.73 814.07,736.88"/>
    </edge>
    <edge id=":1236943394_0" function="internal">
        <lane id=":1236943394_0_0" index="0" disallow="tram rail_urban rail rail_electric rail_fast ship container cable_car subway aircraft wheelchair scooter drone" speed="9.44" length="18.59" shape="864.12,426.54 862.37,423.50 859.07,421.65 854.23,421.01 847.84,421.57"/>
    </edge>
    <edge id=":1236943394_1" function="internal">
        <lane id=":1236943394_1_0" index="0" disallow="tram rail_urban rail rail_electric rail_fast ship container cable_car subway aircraft wheelchair scooter drone" speed="9.03" length="15.57" shape="864.12,426.54 863.36,421.89 863.82,418.06 865.48,415.08 868.35,412.93"/>
    </edge>
    <edge id=":1236943394_2" function="internal">
        <lane id=":1236943394_2_0" index="0" disallow="tram rail_urban rail rail_electric rail_fast ship container cable_car subway aircraft wheelchair scooter drone" speed="3.72" length="4.95" shape="864.12,426.54 864.11,425.02 864.57,424.19 865.51,424.07 866.92,424.64"/>
    </edge>
    <edge id=":1236943394_3" function="internal">
        <lane id=":1236943394_3_0" index="0" disallow="tram rail_urban rail rail_electric rail_fast ship container cable_car subway aircraft wheelchair scooter drone" speed="6.44" length="9.19" shape="870.50,417.52 868.33,418.37 867.01,419.85 866.54,421.94 866.92,424.64"/>
    </edge>
    <edge id=":1236943394_4" function="internal">
        <lane id=":1236943394_4_0" index="0" disallow="tram rail_urban rail rail_electric rail_fast ship container cable_car subway aircraft wheelchair scooter drone" speed="13.89" length="23.02" shape="870.50,417.52 847.84,421.57"/>
    </edge>
    <edge id=":1236943394_5" function="internal">
        <lane id=":1236943394_5_0" index="0" disallow="tram rail_urban rail rail_electric rail_fast ship container cable_car subway aircraft wheelchair scooter drone" speed="4.46" length="4.07" shape="870.50,417.52 868.25,417.18 867.13,416.30 867.14,415.94"/>
    </edge>
    <edge id=":1236943394_10" function="internal">
        <lane id=":1236943394_10_0" index="0" disallow="tram rail_urban rail rail_electric rail_fast ship container cable_car subway aircraft wheelchair scooter drone" speed="4.46" length="3.33" shape="867.14,415.94 867.17,414.89 868.35,412.93"/>
    </edge>
    <edge id=":1236943394_6" function="internal">
        <lane id=":1236943394_6_0" index="0" disallow="tram rail_urban rail rail_electric rail_fast ship container cable_car subway aircraft wheelchair scooter drone" speed="13.89" length="21.63" shape="847.33,418.41 851.22,417.39 855.65,415.59 860.83,413.11 866.99,410.04"/>
        <lane id=":1236943394_6_1" index="1" disallow="tram rail_urban rail rail_electric rail_fast ship container cable_car subway aircraft wheelchair scooter drone" speed="13.89" length="21.63" shape="847.33,418.41 851.44,417.84 856.33,417.04 861.98,415.56 868.35,412.93"/>
    </edge>
    <edge id=":1236943394_8" function="internal">
        <lane id=":1236943394_8_0" index="0" disallow="tram rail_urban rail rail_electric rail_fast ship container cable_car subway aircraft wheelchair scooter drone" speed="10.34" length="7.69" shape="847.33,418.41 854.99,417.75"/>
    </edge>
    <edge id=":1236943394_9" function="internal">
        <lane id=":1236943394_9_0" index="0" disallow="tram rail_urban rail rail_electric rail_fast ship container cable_car subway aircraft wheelchair scooter drone" speed="3.65" length="1.44" shape="847.33,418.41 848.64,419.01"/>
    </edge>
    <edge id=":1236943394_11" function="internal">
        <lane id=":1236943394_11_0" index="0" disallow="tram rail_urban rail rail_electric rail_fast ship container cable_car subway aircraft wheelchair scooter drone" speed="10.34" length="14.80" shape="854.99,417.75 860.82,418.58 864.79,420.87 866.92,424.64"/>
    </edge>
    <edge id=":1236943394_12" function="internal">
        <lane id=":1236943394_12_0" index="0" disallow="tram rail_urban rail rail_electric rail_fast ship container cable_car subway aircraft wheelchair scooter drone" speed="3.65" length="3.23" shape="848.64,419.01 849.16,419.73 848.90,420.58 847.84,421.57"/>
    </edge>
    <edge id=":1236954837_0" function="internal">
        <lane id=":1236954837_0_0" index="0" disallow="tram rail_urban rail rail_electric rail_fast ship container cable_car subway aircraft wheelchair scooter drone" speed="13.89" length="7.52" shape="1019.81,309.39 1021.83,308.26 1023.06,307.19 1024.32,306.20 1026.42,305.31"/>
        <lane id=":1236954837_0_1" index="1" disallow="tram rail_urban rail rail_electric rail_fast ship container cable_car subway aircraft wheelchair scooter drone" speed="13.89" length="7.52" shape="1021.07,312.33 1022.98,311.25 1024.14,310.20 1025.33,309.24 1027.32,308.38"/>
        <lane id=":1236954837_0_2" index="2" disallow="tram rail_urban rail rail_electric rail_fast ship container cable_car subway aircraft wheelchair scooter drone" speed="13.89" length="7.52" shape="1021.07,312.33 1023.10,311.74 1024.60,311.74 1026.12,311.82 1028.23,311.45"/>
    </edge>
    <edge id=":1236954845_0" function="internal">
        <lane id=":1236954845_0_0" index="0" allow="pedestrian delivery bicycle" speed="3.69" length="4.47" shape="974.22,300.85 975.49,300.33 976.34,300.45 976.76,301.20 976.74,302.57"/>
    </edge>
    <edge id=":12658043069_0" function="internal">
        <lane id=":12658043069_0_0" index="0" allow="pedestrian delivery bicycle" speed="3.65" length="4.67" shape="656.55,0.82 656.63,-0.62 657.11,-1.38 658.01,-1.44 659.31,-0.82"/>
    </edge>
    <edge id=":12658043085_0" function="internal">
        <lane id=":12658043085_0_0" index="0" allow="pedestrian delivery bicycle" speed="5.56" length="0.80" shape="963.05,327.41 962.64,328.10"/>
    </edge>
    <edge id=":12658043085_1" function="internal">
        <lane id=":12658043085_1_0" index="0" allow="pedestrian delivery bicycle" speed="5.56" length="0.22" shape="959.96,326.36 959.99,326.31 960.01,326.27 960.03,326.23 960.05,326.17"/>
    </edge>
    <edge id=":12829907093_0" function="internal">
        <lane id=":12829907093_0_0" index="0" allow="pedestrian delivery bicycle" speed="6.90" length="7.08" shape="1266.10,398.79 1264.82,398.74 1263.42,399.30 1261.92,400.46 1260.30,402.22"/>
    </edge>
    <edge id=":12829907093_1" function="internal">
        <lane id=":12829907093_1_0" index="0" disallow="tram rail_urban rail rail_electric rail_fast ship container cable_car subway aircraft wheelchair scooter drone" speed="27.78" length="10.08" shape="1266.10,398.79 1256.43,396.16"/>
        <lane id=":12829907093_1_1" index="1" disallow="tram rail_urban rail rail_electric rail_fast ship container cable_car subway aircraft wheelchair scooter drone" speed="27.78" length="10.08" shape="1266.97,395.71 1257.27,393.07"/>
        <lane id=":12829907093_1_2" index="2" disallow="tram rail_urban rail rail_electric rail_fast ship container cable_car subway aircraft wheelchair scooter drone" speed="27.78" length="10.08" shape="1267.84,392.63 1258.10,389.98"/>
        <lane id=":12829907093_1_3" index="3" disallow="tram rail_urban rail rail_electric rail_fast ship container cable_car subway aircraft wheelchair scooter drone" speed="27.78" length="10.08" shape="1268.70,389.55 1258.93,386.89"/>
    </edge>
    <edge id=":12829907093_5" function="internal">
        <lane id=":12829907093_5_0" index="0" allow="pedestrian delivery bicycle" speed="4.71" length="5.59" shape="1257.78,400.24 1258.63,398.84 1258.68,397.69 1257.95,396.80 1256.43,396.16"/>
        <lane id=":12829907093_5_1" index="1" allow="pedestrian delivery bicycle" speed="5.79" length="9.16" shape="1257.78,400.24 1259.51,397.63 1260.00,395.56 1259.25,394.04 1257.27,393.07"/>
    </edge>
    <edge id=":12829907093_7" function="internal">
        <lane id=":12829907093_7_0" index="0" allow="pedestrian delivery bicycle" speed="3.65" length="4.67" shape="1257.78,400.24 1259.15,399.79 1260.03,399.97 1260.41,400.78 1260.30,402.22"/>
    </edge>
    <edge id=":12866006419_0" function="internal">
        <lane id=":12866006419_0_0" index="0" disallow="tram rail_urban rail rail_electric rail_fast ship container cable_car subway aircraft wheelchair scooter drone" speed="13.89" length="5.12" shape="959.35,814.30 954.74,812.06"/>
    </edge>
    <edge id=":12866006439_0" function="internal">
        <lane id=":12866006439_0_0" index="0" allow="pedestrian delivery bicycle" speed="5.56" length="10.04" shape="771.56,714.84 769.33,713.25 768.13,711.31 767.94,709.04 768.78,706.44"/>
    </edge>
    <edge id=":12866006439_1" function="internal">
        <lane id=":12866006439_1_0" index="0" allow="pedestrian delivery bicycle" speed="3.65" length="1.44" shape="771.56,714.84 770.87,713.57"/>
    </edge>
    <edge id=":12866006439_4" function="internal">
        <lane id=":12866006439_4_0" index="0" allow="pedestrian delivery bicycle" speed="3.65" length="3.23" shape="770.87,713.57 770.88,712.68 771.60,712.15 773.04,712.00"/>
    </edge>
    <edge id=":12866006439_2" function="internal">
        <lane id=":12866006439_2_0" index="0" allow="pedestrian delivery bicycle" speed="5.07" length="4.97" shape="771.66,707.84 771.25,709.13 771.34,710.25 771.93,711.21 773.04,712.00"/>
    </edge>
    <edge id=":12866006439_3" function="internal">
        <lane id=":12866006439_3_0" index="0" allow="pedestrian delivery bicycle" speed="3.65" length="1.30" shape="771.66,707.84 770.54,708.50"/>
    </edge>
    <edge id=":12866006439_5" function="internal">
        <lane id=":12866006439_5_0" index="0" allow="pedestrian delivery bicycle" speed="3.65" length="3.37" shape="770.54,708.50 770.42,708.57 769.52,708.57 768.98,707.86 768.78,706.44"/>
    </edge>
    <edge id=":12866006443_0" function="internal">
        <lane id=":12866006443_0_0" index="0" allow="pedestrian delivery bicycle" speed="5.56" length="9.55" shape="935.50,545.04 929.64,552.57"/>
    </edge>
    <edge id=":12866006443_1" function="internal">
        <lane id=":12866006443_1_0" index="0" allow="pedestrian delivery bicycle" speed="5.56" length="10.24" shape="935.50,545.04 933.52,547.01 931.37,547.86 929.07,547.60 926.62,546.21"/>
    </edge>
    <edge id=":12866006443_2" function="internal">
        <lane id=":12866006443_2_0" index="0" allow="pedestrian delivery bicycle" speed="3.65" length="4.67" shape="935.50,545.04 934.14,545.52 933.26,545.35 932.86,544.55 932.95,543.11"/>
    </edge>
    <edge id=":12866006443_3" function="internal">
        <lane id=":12866006443_3_0" index="0" allow="pedestrian delivery bicycle" speed="5.05" length="5.05" shape="928.57,543.67 929.78,544.36 930.92,544.50 931.97,544.08 932.95,543.11"/>
    </edge>
    <edge id=":12866006443_4" function="internal">
        <lane id=":12866006443_4_0" index="0" allow="pedestrian delivery bicycle" speed="5.56" length="10.27" shape="928.57,543.67 930.54,545.69 931.38,547.85 931.08,550.14 929.64,552.57"/>
    </edge>
    <edge id=":12866006443_5" function="internal">
        <lane id=":12866006443_5_0" index="0" allow="pedestrian delivery bicycle" speed="3.65" length="4.67" shape="928.57,543.67 929.03,545.04 928.86,545.92 928.06,546.31 926.62,546.21"/>
    </edge>
    <edge id=":12866006443_6" function="internal">
        <lane id=":12866006443_6_0" index="0" allow="pedestrian delivery bicycle" speed="5.02" length="5.03" shape="927.14,550.57 927.85,549.38 927.99,548.26 927.59,547.20 926.62,546.21"/>
    </edge>
    <edge id=":12866006443_7" function="internal">
        <lane id=":12866006443_7_0" index="0" allow="pedestrian delivery bicycle" speed="5.56" length="9.45" shape="927.14,550.57 932.95,543.11"/>
    </edge>
    <edge id=":12866006443_8" function="internal">
        <lane id=":12866006443_8_0" index="0" allow="pedestrian delivery bicycle" speed="3.65" length="4.67" shape="927.14,550.57 928.52,550.13 929.39,550.32 929.77,551.14 929.64,552.57"/>
    </edge>
    <edge id=":12866006446_0" function="internal">
        <lane id=":12866006446_0_0" index="0" allow="pedestrian delivery bicycle" speed="5.56" length="9.46" shape="874.15,621.54 868.18,628.87"/>
    </edge>
    <edge id=":12866006446_1" function="internal">
        <lane id=":12866006446_1_0" index="0" allow="pedestrian delivery bicycle" speed="5.56" length="10.20" shape="874.15,621.54 872.13,623.42 869.97,624.21 867.67,623.89 865.24,622.47"/>
    </edge>
    <edge id=":12866006446_2" function="internal">
        <lane id=":12866006446_2_0" index="0" allow="pedestrian delivery bicycle" speed="3.65" length="4.67" shape="874.15,621.54 872.78,621.97 871.90,621.78 871.53,620.97 871.66,619.53"/>
    </edge>
    <edge id=":12866006446_3" function="internal">
        <lane id=":12866006446_3_0" index="0" allow="pedestrian delivery bicycle" speed="5.09" length="5.07" shape="867.22,619.96 868.44,620.67 869.58,620.84 870.66,620.46 871.66,619.53"/>
    </edge>
    <edge id=":12866006446_4" function="internal">
        <lane id=":12866006446_4_0" index="0" allow="pedestrian delivery bicycle" speed="5.56" length="10.27" shape="867.22,619.96 869.17,622.00 869.98,624.17 869.65,626.46 868.18,628.87"/>
    </edge>
    <edge id=":12866006446_5" function="internal">
        <lane id=":12866006446_5_0" index="0" allow="pedestrian delivery bicycle" speed="3.65" length="4.67" shape="867.22,619.96 867.67,621.33 867.49,622.21 866.68,622.59 865.24,622.47"/>
    </edge>
    <edge id=":12866006446_6" function="internal">
        <lane id=":12866006446_6_0" index="0" allow="pedestrian delivery bicycle" speed="5.02" length="5.03" shape="865.71,626.83 866.43,625.65 866.59,624.53 866.19,623.47 865.24,622.47"/>
    </edge>
    <edge id=":12866006446_7" function="internal">
        <lane id=":12866006446_7_0" index="0" allow="pedestrian delivery bicycle" speed="5.56" length="9.42" shape="865.71,626.83 871.66,619.53"/>
    </edge>
    <edge id=":12866006446_8" function="internal">
        <lane id=":12866006446_8_0" index="0" allow="pedestrian delivery bicycle" speed="3.65" length="4.67" shape="865.71,626.83 867.09,626.42 867.96,626.62 868.32,627.43 868.18,628.87"/>
    </edge>
    <edge id=":12866006447_0" function="internal">
        <lane id=":12866006447_0_0" index="0" allow="pedestrian delivery bicycle" speed="5.56" length="9.50" shape="861.31,637.19 855.19,644.46"/>
    </edge>
    <edge id=":12866006447_1" function="internal">
        <lane id=":12866006447_1_0" index="0" allow="pedestrian delivery bicycle" speed="5.56" length="10.22" shape="861.31,637.19 859.27,639.04 857.09,639.79 854.79,639.45 852.36,638.00"/>
    </edge>
    <edge id=":12866006447_2" function="internal">
        <lane id=":12866006447_2_0" index="0" allow="pedestrian delivery bicycle" speed="3.65" length="4.67" shape="861.31,637.19 859.93,637.61 859.06,637.41 858.70,636.59 858.84,635.15"/>
    </edge>
    <edge id=":12866006447_3" function="internal">
        <lane id=":12866006447_3_0" index="0" allow="pedestrian delivery bicycle" speed="5.12" length="5.12" shape="854.35,635.50 855.58,636.24 856.74,636.43 857.83,636.07 858.84,635.15"/>
    </edge>
    <edge id=":12866006447_4" function="internal">
        <lane id=":12866006447_4_0" index="0" allow="pedestrian delivery bicycle" speed="5.56" length="10.34" shape="854.35,635.50 856.30,637.58 857.09,639.76 856.72,642.06 855.19,644.46"/>
    </edge>
    <edge id=":12866006447_5" function="internal">
        <lane id=":12866006447_5_0" index="0" allow="pedestrian delivery bicycle" speed="3.65" length="4.67" shape="854.35,635.50 854.79,636.88 854.60,637.75 853.79,638.13 852.36,638.00"/>
    </edge>
    <edge id=":12866006447_6" function="internal">
        <lane id=":12866006447_6_0" index="0" allow="pedestrian delivery bicycle" speed="5.00" length="5.04" shape="852.76,642.37 853.51,641.20 853.69,640.08 853.31,639.01 852.36,638.00"/>
    </edge>
    <edge id=":12866006447_7" function="internal">
        <lane id=":12866006447_7_0" index="0" allow="pedestrian delivery bicycle" speed="5.56" length="9.44" shape="852.76,642.37 858.84,635.15"/>
    </edge>
    <edge id=":12866006447_8" function="internal">
        <lane id=":12866006447_8_0" index="0" allow="pedestrian delivery bicycle" speed="3.65" length="4.67" shape="852.76,642.37 854.15,641.98 855.02,642.20 855.37,643.03 855.19,644.46"/>
    </edge>
    <edge id=":12866006448_0" function="internal">
        <lane id=":12866006448_0_0" index="0" allow="pedestrian delivery bicycle" speed="5.56" length="8.22" shape="849.36,651.23 847.78,653.09 846.76,654.42 845.91,655.86 844.81,658.03"/>
    </edge>
    <edge id=":12866006448_1" function="internal">
        <lane id=":12866006448_1_0" index="0" allow="pedestrian delivery bicycle" speed="5.56" length="9.85" shape="849.36,651.23 847.35,653.00 845.22,653.74 842.99,653.46 840.65,652.17"/>
    </edge>
    <edge id=":12866006448_2" function="internal">
        <lane id=":12866006448_2_0" index="0" allow="pedestrian delivery bicycle" speed="3.65" length="4.67" shape="849.36,651.23 847.97,651.62 847.10,651.40 846.76,650.58 846.93,649.14"/>
    </edge>
    <edge id=":12866006448_3" function="internal">
        <lane id=":12866006448_3_0" index="0" allow="pedestrian delivery bicycle" speed="5.11" length="4.92" shape="842.58,649.61 843.75,650.26 844.87,650.40 845.93,650.03 846.93,649.14"/>
    </edge>
    <edge id=":12866006448_4" function="internal">
        <lane id=":12866006448_4_0" index="0" allow="pedestrian delivery bicycle" speed="5.56" length="9.57" shape="842.58,649.61 844.46,651.45 845.46,653.47 845.58,655.66 844.81,658.03"/>
    </edge>
    <edge id=":12866006448_5" function="internal">
        <lane id=":12866006448_5_0" index="0" allow="pedestrian delivery bicycle" speed="3.65" length="4.67" shape="842.58,649.61 843.06,650.97 842.89,651.85 842.09,652.25 840.65,652.17"/>
    </edge>
    <edge id=":12866006448_6" function="internal">
        <lane id=":12866006448_6_0" index="0" allow="pedestrian delivery bicycle" speed="5.42" length="5.08" shape="841.94,656.61 842.33,655.38 842.24,654.23 841.68,653.16 840.65,652.17"/>
    </edge>
    <edge id=":12866006448_7" function="internal">
        <lane id=":12866006448_7_0" index="0" allow="pedestrian delivery bicycle" speed="5.56" length="9.03" shape="841.94,656.61 843.15,654.22 844.08,652.64 845.20,651.18 846.93,649.14"/>
    </edge>
    <edge id=":12866006448_8" function="internal">
        <lane id=":12866006448_8_0" index="0" allow="pedestrian delivery bicycle" speed="3.65" length="4.67" shape="841.94,656.61 843.19,655.89 844.08,655.89 844.62,656.60 844.81,658.03"/>
    </edge>
    <edge id=":12866006449_0" function="internal">
        <lane id=":12866006449_0_0" index="0" allow="pedestrian delivery bicycle" speed="5.56" length="9.40" shape="810.20,734.88 801.85,730.55"/>
    </edge>
    <edge id=":12866006449_1" function="internal">
        <lane id=":12866006449_1_0" index="0" allow="pedestrian delivery bicycle" speed="5.56" length="10.17" shape="810.20,734.88 807.96,733.27 806.77,731.31 806.61,729.00 807.49,726.34"/>
    </edge>
    <edge id=":12866006449_2" function="internal">
        <lane id=":12866006449_2_0" index="0" allow="pedestrian delivery bicycle" speed="3.65" length="4.67" shape="810.20,734.88 809.50,733.61 809.51,732.72 810.24,732.19 811.67,732.04"/>
    </edge>
    <edge id=":12866006449_3" function="internal">
        <lane id=":12866006449_3_0" index="0" allow="pedestrian delivery bicycle" speed="5.11" length="5.08" shape="810.36,727.76 809.91,729.10 809.98,730.26 810.57,731.24 811.67,732.04"/>
    </edge>
    <edge id=":12866006449_4" function="internal">
        <lane id=":12866006449_4_0" index="0" allow="pedestrian delivery bicycle" speed="5.56" length="10.26" shape="810.36,727.76 808.77,730.08 806.82,731.32 804.52,731.48 801.85,730.55"/>
    </edge>
    <edge id=":12866006449_5" function="internal">
        <lane id=":12866006449_5_0" index="0" allow="pedestrian delivery bicycle" speed="3.65" length="4.67" shape="810.36,727.76 809.12,728.48 808.22,728.48 807.68,727.77 807.49,726.34"/>
    </edge>
    <edge id=":12866006449_6" function="internal">
        <lane id=":12866006449_6_0" index="0" allow="pedestrian delivery bicycle" speed="5.02" length="5.02" shape="803.33,727.71 804.63,728.16 805.76,728.09 806.71,727.48 807.49,726.34"/>
    </edge>
    <edge id=":12866006449_7" function="internal">
        <lane id=":12866006449_7_0" index="0" allow="pedestrian delivery bicycle" speed="5.56" length="9.40" shape="803.33,727.71 811.67,732.04"/>
    </edge>
    <edge id=":12866006449_8" function="internal">
        <lane id=":12866006449_8_0" index="0" allow="pedestrian delivery bicycle" speed="3.65" length="4.67" shape="803.33,727.71 804.02,728.97 804.01,729.86 803.29,730.39 801.85,730.55"/>
    </edge>
    <edge id=":12866006450_0" function="internal">
        <lane id=":12866006450_0_0" index="0" allow="pedestrian delivery bicycle" speed="5.56" length="9.40" shape="820.52,707.18 816.36,715.61"/>
    </edge>
    <edge id=":12866006450_1" function="internal">
        <lane id=":12866006450_1_0" index="0" allow="pedestrian delivery bicycle" speed="5.56" length="10.19" shape="820.52,707.18 818.94,709.48 817.01,710.73 814.72,710.90 812.07,710.02"/>
    </edge>
    <edge id=":12866006450_2" function="internal">
        <lane id=":12866006450_2_0" index="0" allow="pedestrian delivery bicycle" speed="3.65" length="4.67" shape="820.52,707.18 819.28,707.90 818.38,707.91 817.84,707.19 817.66,705.76"/>
    </edge>
    <edge id=":12866006450_3" function="internal">
        <lane id=":12866006450_3_0" index="0" allow="pedestrian delivery bicycle" speed="5.03" length="5.01" shape="813.50,707.16 814.80,707.59 815.93,707.50 816.88,706.89 817.66,705.76"/>
    </edge>
    <edge id=":12866006450_4" function="internal">
        <lane id=":12866006450_4_0" index="0" allow="pedestrian delivery bicycle" speed="5.56" length="10.16" shape="813.50,707.16 815.79,708.74 817.03,710.68 817.22,712.97 816.36,715.61"/>
    </edge>
    <edge id=":12866006450_5" function="internal">
        <lane id=":12866006450_5_0" index="0" allow="pedestrian delivery bicycle" speed="3.65" length="4.67" shape="813.50,707.16 814.21,708.41 814.21,709.30 813.50,709.84 812.07,710.02"/>
    </edge>
    <edge id=":12866006450_6" function="internal">
        <lane id=":12866006450_6_0" index="0" allow="pedestrian delivery bicycle" speed="5.06" length="5.02" shape="813.49,714.19 813.92,712.89 813.82,711.76 813.20,710.80 812.07,710.02"/>
    </edge>
    <edge id=":12866006450_7" function="internal">
        <lane id=":12866006450_7_0" index="0" allow="pedestrian delivery bicycle" speed="5.56" length="9.40" shape="813.49,714.19 817.66,705.76"/>
    </edge>
    <edge id=":12866006450_8" function="internal">
        <lane id=":12866006450_8_0" index="0" allow="pedestrian delivery bicycle" speed="3.65" length="4.67" shape="813.49,714.19 814.74,713.47 815.64,713.46 816.18,714.18 816.36,715.61"/>
    </edge>
    <edge id=":12866006451_0" function="internal">