<?xml version="1.0" encoding="UTF-8"?>

<!-- generated on 2025-11-17T19:26:05.152270-03:00 by Eclipse SUMO netconvert 1.25.0
<netconvertConfiguration xmlns:xsi="http://www.w3.org/2001/XMLSchema-instance" xsi:noNamespaceSchemaLocation="http://sumo.dlr.de/xsd/netconvertConfiguration.xsd">

    <input>
        <osm-files value="research_maps/osm_files/industrial.osm"/>
    </input>

    <output>
        <output-file value="research_maps/sumo_xml/industrial.net.xml"/>
    </output>

    <projection>
        <proj.utm value="true"/>
    </projection>

    <processing>
        <geometry.remove value="true"/>
        <offset.disable-normalization value="true"/>
        <roundabouts.guess value="true"/>
    </processing>

    <tls_building>
        <tls.discard-simple value="true"/>
        <tls.join value="true"/>
        <tls.guess-signals value="true"/>
    </tls_building>

    <ramp_guessing>
        <ramps.guess value="true"/>
    </ramp_guessing>

    <edge_removal>
        <keep-edges.by-vclass value="passenger"/>
        <remove-edges.by-vclass value="pedestrian,bicycle"/>
    </edge_removal>

    <junctions>
        <junctions.join value="true"/>
        <junctions.join-dist value="15.0"/>
    </junctions>

    <report>
        <verbose value="true"/>
    </report>

</netconvertConfiguration>
-->

<net version="1.20" junctionCornerDetail="5" limitTurnSpeed="5.50" xmlns:xsi="http://www.w3.org/2001/XMLSchema-instance" xsi:noNamespaceSchemaLocation="http://sumo.dlr.de/xsd/net_file.xsd">

    <location netOffset="0.00,0.00" convBoundary="377540.35,5822277.35,379259.88,5824143.35" origBoundary="13.194075,52.534893,13.282879,52.562001" projParameter="+proj=utm +zone=33 +ellps=WGS84 +datum=WGS84 +units=m +no_defs"/>

    <type id="highway.living_street" priority="2" numLanes="1" speed="2.78" disallow="tram rail_urban rail rail_electric rail_fast ship container cable_car subway aircraft wheelchair scooter drone" oneway="0"/>
    <type id="highway.residential" priority="3" numLanes="1" speed="13.89" disallow="tram rail_urban rail rail_electric rail_fast ship container cable_car subway aircraft wheelchair scooter drone" oneway="0"/>
    <type id="highway.secondary" priority="11" numLanes="1" speed="27.78" disallow="tram rail_urban rail rail_electric rail_fast ship container cable_car subway aircraft wheelchair scooter drone" oneway="0"/>
    <type id="highway.tertiary" priority="10" numLanes="1" speed="22.22" disallow="tram rail_urban rail rail_electric rail_fast ship container cable_car subway aircraft wheelchair scooter drone" oneway="0"/>
    <type id="highway.unclassified" priority="4" numLanes="1" speed="13.89" disallow="tram rail_urban rail rail_electric rail_fast ship container cable_car subway aircraft wheelchair scooter drone" oneway="0"/>

    <edge id=":11029753253_0" function="internal">
        <lane id=":11029753253_0_0" index="0" disallow="tram rail_urban rail rail_electric rail_fast ship container cable_car subway aircraft wheelchair scooter drone" speed="2.78" length="4.67" shape="378604.75,5823316.26 378605.12,5823314.87 378605.75,5823314.23 378606.64,5823314.35 378607.78,5823315.22"/>
    </edge>
    <edge id=":12097750741_0" function="internal">
        <lane id=":12097750741_0_0" index="0" disallow="tram rail_urban rail rail_electric rail_fast ship container cable_car subway aircraft wheelchair scooter drone" speed="8.33" length="3.46" width="3.00" shape="378234.96,5823033.21 378234.05,5823033.55 378233.30,5823033.45 378232.55,5823033.34 378231.64,5823033.69"/>
    </edge>
    <edge id=":12097750741_1" function="internal">
        <lane id=":12097750741_1_0" index="0" disallow="tram rail_urban rail rail_electric rail_fast ship container cable_car subway aircraft wheelchair scooter drone" speed="8.33" length="3.31" width="6.00" shape="378230.08,5823031.12 378230.68,5823030.42 378230.81,5823029.70 378230.95,5823028.98 378231.55,5823028.28"/>
    </edge>
    <edge id=":12281797038_0" function="internal">
        <lane id=":12281797038_0_0" index="0" disallow="tram rail_urban rail rail_electric rail_fast ship container cable_car subway aircraft wheelchair scooter drone" speed="8.33" length="3.00" width="3.50" shape="378063.29,5822431.03 378061.83,5822428.41"/>
    </edge>
    <edge id=":12281797053_0" function="internal">
        <lane id=":12281797053_0_0" index="0" disallow="tram rail_urban rail rail_electric rail_fast ship container cable_car subway aircraft wheelchair scooter drone" speed="5.40" length="10.22" width="7.00" shape="378216.41,5822573.60 378217.99,5822576.34 378218.00,5822578.29 378216.44,5822579.47 378213.31,5822579.88"/>
    </edge>
    <edge id=":12281797074_0" function="internal">
        <lane id=":12281797074_0_0" index="0" disallow="tram rail_urban rail rail_electric rail_fast ship container cable_car subway aircraft wheelchair scooter drone" speed="8.33" length="3.00" width="7.00" shape="378103.75,5822395.56 378105.37,5822398.08"/>
    </edge>
    <edge id=":12281810541_0" function="internal">
        <lane id=":12281810541_0_0" index="0" disallow="tram rail_urban rail rail_electric rail_fast ship container cable_car subway aircraft wheelchair scooter drone" speed="13.89" length="1.99" width="5.00" shape="377840.71,5822559.51 377840.39,5822560.00 377840.18,5822560.35 377839.99,5822560.71 377839.73,5822561.24"/>
    </edge>
    <edge id=":12282455959_0" function="internal">
        <lane id=":12282455959_0_0" index="0" disallow="tram rail_urban rail rail_electric rail_fast ship container cable_car subway aircraft wheelchair scooter drone" speed="13.89" length="0.39" width="6.00" shape="377857.49,5822540.50 377857.40,5822540.57 377857.33,5822540.61 377857.27,5822540.67 377857.18,5822540.74"/>
    </edge>
    <edge id=":12282455959_1" function="internal">
        <lane id=":12282455959_1_0" index="0" disallow="tram rail_urban rail rail_electric rail_fast ship container cable_car subway aircraft wheelchair scooter drone" speed="13.89" length="1.18" width="6.00" shape="377853.23,5822536.45 377853.47,5822536.20 377853.62,5822536.00 377853.77,5822535.81 377854.04,5822535.59"/>
    </edge>
    <edge id=":13069414112_0" function="internal">
        <lane id=":13069414112_0_0" index="0" disallow="tram rail_urban rail rail_electric rail_fast ship container cable_car subway aircraft wheelchair scooter drone" speed="3.65" length="4.67" shape="377756.59,5822493.31 377756.57,5822491.86 377757.00,5822491.08 377757.89,5822490.96 377759.23,5822491.49"/>
    </edge>
    <edge id=":13247723454_0" function="internal">
        <lane id=":13247723454_0_0" index="0" disallow="tram rail_urban rail rail_electric rail_fast ship container cable_car subway aircraft wheelchair scooter drone" speed="3.65" length="4.67" shape="378629.80,5823529.57 378629.45,5823530.97 378628.83,5823531.62 378627.94,5823531.51 378626.78,5823530.65"/>
    </edge>
    <edge id=":1376912801_0" function="internal">
        <lane id=":1376912801_0_0" index="0" disallow="tram rail_urban rail rail_electric rail_fast ship container cable_car subway aircraft wheelchair scooter drone" speed="13.89" length="8.43" shape="378380.44,5822992.48 378378.98,5822990.41 378377.35,5822989.43 378375.74,5822988.44 378374.32,5822986.35"/>
        <lane id=":1376912801_0_1" index="1" disallow="tram rail_urban rail rail_electric rail_fast ship container cable_car subway aircraft wheelchair scooter drone" speed="13.89" length="8.43" shape="378380.44,5822992.48 378377.27,5822985.12"/>
    </edge>
    <edge id=":1376912801_2" function="internal">
        <lane id=":1376912801_2_0" index="0" disallow="tram rail_urban rail rail_electric rail_fast ship container cable_car subway aircraft wheelchair scooter drone" speed="13.89" length="8.73" shape="378383.18,5822982.65 378383.66,5822985.09 378383.24,5822986.93 378382.84,5822988.75 378383.37,5822991.18"/>
    </edge>
    <edge id=":1869043946_0" function="internal">
        <lane id=":1869043946_0_0" index="0" disallow="tram rail_urban rail rail_electric rail_fast ship container cable_car subway aircraft wheelchair scooter drone" speed="7.74" length="2.43" shape="378320.65,5822598.99 378319.94,5822598.89 378319.46,5822598.76 378319.01,5822598.53 378318.43,5822598.11"/>
    </edge>
    <edge id=":1869043946_1" function="internal">
        <lane id=":1869043946_1_0" index="0" disallow="tram rail_urban rail rail_electric rail_fast ship container cable_car subway aircraft wheelchair scooter drone" speed="11.11" length="0.81" shape="378320.30,5822595.52 378320.50,5822595.66 378320.65,5822595.74 378320.81,5822595.78 378321.04,5822595.81"/>
    </edge>
    <edge id=":203604067_0" function="internal">
        <lane id=":203604067_0_0" index="0" disallow="tram rail_urban rail rail_electric rail_fast ship container cable_car subway aircraft wheelchair scooter drone" speed="3.65" length="4.67" shape="378823.76,5822312.53 378823.71,5822311.09 378824.13,5822310.30 378825.02,5822310.16 378826.36,5822310.67"/>
    </edge>
    <edge id=":249692900_0" function="internal">
        <lane id=":249692900_0_0" index="0" disallow="tram rail_urban rail rail_electric rail_fast ship container cable_car subway aircraft wheelchair scooter drone" speed="8.33" length="16.16" shape="378257.45,5823239.60 378243.76,5823248.20"/>
    </edge>
    <edge id=":249692900_1" function="internal">
        <lane id=":249692900_1_0" index="0" disallow="tram rail_urban rail rail_electric rail_fast ship container cable_car subway aircraft wheelchair scooter drone" speed="8.34" length="15.41" width="4.25" shape="378257.45,5823239.60 378253.28,5823241.42 378249.66,5823241.65 378246.60,5823240.29 378244.08,5823237.34"/>
    </edge>
    <edge id=":249692900_2" function="internal">
        <lane id=":249692900_2_0" index="0" disallow="tram rail_urban rail rail_electric rail_fast ship container cable_car subway aircraft wheelchair scooter drone" speed="3.65" length="4.67" shape="378257.45,5823239.60 378256.01,5823239.52 378255.26,5823239.03 378255.20,5823238.14 378255.82,5823236.84"/>
    </edge>
    <edge id=":249692900_3" function="internal">
        <lane id=":249692900_3_0" index="0" disallow="tram rail_urban rail rail_electric rail_fast ship container cable_car subway aircraft wheelchair scooter drone" speed="6.75" length="9.41" shape="378247.73,5823235.16 378249.30,5823237.05 378251.18,5823237.96 378253.35,5823237.89 378255.82,5823236.84"/>
    </edge>
    <edge id=":249692900_4" function="internal">
        <lane id=":249692900_4_0" index="0" disallow="tram rail_urban rail rail_electric rail_fast ship container cable_car subway aircraft wheelchair scooter drone" speed="8.54" length="15.35" shape="378247.73,5823235.16 378249.14,5823238.75 378248.95,5823242.12 378247.16,5823245.27 378243.76,5823248.20"/>
    </edge>
    <edge id=":249692900_5" function="internal">
        <lane id=":249692900_5_0" index="0" disallow="tram rail_urban rail rail_electric rail_fast ship container cable_car subway aircraft wheelchair scooter drone" speed="4.21" length="6.21" width="4.25" shape="378247.73,5823235.16 378247.63,5823237.07 378246.99,5823238.07 378245.81,5823238.16 378244.08,5823237.34"/>
    </edge>
    <edge id=":249692900_6" function="internal">
        <lane id=":249692900_6_0" index="0" disallow="tram rail_urban rail rail_electric rail_fast ship container cable_car subway aircraft wheelchair scooter drone" speed="6.79" length="9.54" width="4.25" shape="378241.98,5823245.54 378243.99,5823243.77 378245.01,5823241.82 378245.04,5823239.67 378244.08,5823237.34"/>
    </edge>
    <edge id=":249692900_7" function="internal">
        <lane id=":249692900_7_0" index="0" disallow="tram rail_urban rail rail_electric rail_fast ship container cable_car subway aircraft wheelchair scooter drone" speed="8.33" length="16.35" shape="378241.98,5823245.54 378255.82,5823236.84"/>
    </edge>
    <edge id=":249692900_8" function="internal">
        <lane id=":249692900_8_0" index="0" disallow="tram rail_urban rail rail_electric rail_fast ship container cable_car subway aircraft wheelchair scooter drone" speed="3.65" length="4.67" shape="378241.98,5823245.54 378243.42,5823245.54 378244.20,5823245.98 378244.31,5823246.87 378243.76,5823248.20"/>
    </edge>
    <edge id=":249693004_0" function="internal">
        <lane id=":249693004_0_0" index="0" disallow="tram rail_urban rail rail_electric rail_fast ship container cable_car subway aircraft wheelchair scooter drone" speed="6.45" length="10.60" width="5.50" shape="378269.30,5823095.98 378266.85,5823093.93 378264.61,5823093.32 378262.59,5823094.15 378260.77,5823096.41"/>
    </edge>
    <edge id=":249693004_1" function="internal">
        <lane id=":249693004_1_0" index="0" disallow="tram rail_urban rail rail_electric rail_fast ship container cable_car subway aircraft wheelchair scooter drone" speed="11.11" length="22.11" width="5.00" shape="378269.30,5823095.98 378254.04,5823079.98"/>
    </edge>
    <edge id=":249693004_2" function="internal">
        <lane id=":249693004_2_0" index="0" disallow="tram rail_urban rail rail_electric rail_fast ship container cable_car subway aircraft wheelchair scooter drone" speed="11.11" length="21.61" width="5.25" shape="378269.30,5823095.98 378266.55,5823091.51 378265.07,5823085.98 378265.00,5823080.35 378266.46,5823075.56"/>
    </edge>
    <edge id=":249693004_3" function="internal">
        <lane id=":249693004_3_0" index="0" disallow="tram rail_urban rail rail_electric rail_fast ship container cable_car subway aircraft wheelchair scooter drone" speed="4.08" length="5.84" width="4.00" shape="378269.30,5823095.98 378269.06,5823094.19 378269.47,5823093.16 378270.55,5823092.87 378272.30,5823093.33"/>
    </edge>
    <edge id=":249693004_4" function="internal">
        <lane id=":249693004_4_0" index="0" disallow="tram rail_urban rail rail_electric rail_fast ship container cable_car subway aircraft wheelchair scooter drone" speed="9.88" length="16.42" width="4.00" shape="378271.03,5823078.15 378269.30,5823082.31 378268.93,5823086.23 378269.93,5823089.90 378272.30,5823093.33"/>
    </edge>
    <edge id=":249693004_5" function="internal">
        <lane id=":249693004_5_0" index="0" disallow="tram rail_urban rail rail_electric rail_fast ship container cable_car subway aircraft wheelchair scooter drone" speed="13.89" length="20.95" width="5.50" shape="378271.03,5823078.15 378260.77,5823096.41"/>
    </edge>
    <edge id=":249693004_6" function="internal">
        <lane id=":249693004_6_0" index="0" disallow="tram rail_urban rail rail_electric rail_fast ship container cable_car subway aircraft wheelchair scooter drone" speed="8.89" length="7.70" width="5.00" shape="378271.03,5823078.15 378267.24,5823083.09 378265.92,5823083.72"/>
    </edge>
    <edge id=":249693004_7" function="internal">
        <lane id=":249693004_7_0" index="0" disallow="tram rail_urban rail rail_electric rail_fast ship container cable_car subway aircraft wheelchair scooter drone" speed="4.68" length="2.92" width="5.25" shape="378271.03,5823078.15 378268.92,5823079.22 378268.37,5823079.19"/>
    </edge>
    <edge id=":249693004_16" function="internal">
        <lane id=":249693004_16_0" index="0" disallow="tram rail_urban rail rail_electric rail_fast ship container cable_car subway aircraft wheelchair scooter drone" speed="8.89" length="13.79" width="5.00" shape="378265.92,5823083.72 378263.14,5823085.05 378258.74,5823084.01 378254.04,5823079.98"/>
    </edge>
    <edge id=":249693004_17" function="internal">
        <lane id=":249693004_17_0" index="0" disallow="tram rail_urban rail rail_electric rail_fast ship container cable_car subway aircraft wheelchair scooter drone" speed="4.68" length="4.74" width="5.25" shape="378268.37,5823079.19 378267.46,5823079.14 378266.64,5823077.92 378266.46,5823075.56"/>
    </edge>
    <edge id=":249693004_8" function="internal">
        <lane id=":249693004_8_0" index="0" disallow="tram rail_urban rail rail_electric rail_fast ship container cable_car subway aircraft wheelchair scooter drone" speed="6.64" length="11.12" width="5.25" shape="378257.67,5823076.54 378260.10,5823078.62 378262.38,5823079.15 378264.50,5823078.13 378266.46,5823075.56"/>
    </edge>
    <edge id=":249693004_9" function="internal">
        <lane id=":249693004_9_0" index="0" disallow="tram rail_urban rail rail_electric rail_fast ship container cable_car subway aircraft wheelchair scooter drone" speed="11.11" length="22.27" width="4.00" shape="378257.67,5823076.54 378272.30,5823093.33"/>
    </edge>
    <edge id=":249693004_10" function="internal">
        <lane id=":249693004_10_0" index="0" disallow="tram rail_urban rail rail_electric rail_fast ship container cable_car subway aircraft wheelchair scooter drone" speed="11.17" length="21.04" width="5.50" shape="378257.67,5823076.54 378260.41,5823081.06 378261.93,5823086.49 378262.10,5823091.92 378260.77,5823096.41"/>
    </edge>
    <edge id=":249693004_11" function="internal">
        <lane id=":249693004_11_0" index="0" disallow="tram rail_urban rail rail_electric rail_fast ship container cable_car subway aircraft wheelchair scooter drone" speed="4.56" length="7.31" width="5.00" shape="378257.67,5823076.54 378258.05,5823078.76 378257.57,5823080.08 378256.24,5823080.48 378254.04,5823079.98"/>
    </edge>
    <edge id=":249693004_12" function="internal">
        <lane id=":249693004_12_0" index="0" disallow="tram rail_urban rail rail_electric rail_fast ship container cable_car subway aircraft wheelchair scooter drone" speed="9.54" length="14.86" width="5.00" shape="378256.00,5823093.67 378257.37,5823090.21 378257.50,5823086.78 378256.39,5823083.37 378254.04,5823079.98"/>
    </edge>
    <edge id=":249693004_13" function="internal">
        <lane id=":249693004_13_0" index="0" disallow="tram rail_urban rail rail_electric rail_fast ship container cable_car subway aircraft wheelchair scooter drone" speed="13.89" length="20.91" width="5.25" shape="378256.00,5823093.67 378266.46,5823075.56"/>
    </edge>
    <edge id=":249693004_14" function="internal">
        <lane id=":249693004_14_0" index="0" disallow="tram rail_urban rail rail_electric rail_fast ship container cable_car subway aircraft wheelchair scooter drone" speed="8.74" length="6.67" width="4.00" shape="378256.00,5823093.67 378259.41,5823089.49 378260.61,5823089.04"/>
    </edge>
    <edge id=":249693004_15" function="internal">
        <lane id=":249693004_15_0" index="0" disallow="tram rail_urban rail rail_electric rail_fast ship container cable_car subway aircraft wheelchair scooter drone" speed="4.79" length="3.07" width="5.50" shape="378256.00,5823093.67 378258.22,5823092.56 378258.81,5823092.60"/>
    </edge>
    <edge id=":249693004_18" function="internal">
        <lane id=":249693004_18_0" index="0" disallow="tram rail_urban rail rail_electric rail_fast ship container cable_car subway aircraft wheelchair scooter drone" speed="8.74" length="13.52" width="4.00" shape="378260.61,5823089.04 378263.26,5823088.04 378267.55,5823089.32 378272.30,5823093.33"/>
    </edge>
    <edge id=":249693004_19" function="internal">
        <lane id=":249693004_19_0" index="0" disallow="tram rail_urban rail rail_electric rail_fast ship container cable_car subway aircraft wheelchair scooter drone" speed="4.79" length="4.96" width="5.50" shape="378258.81,5823092.60 378259.76,5823092.65 378260.61,5823093.93 378260.77,5823096.41"/>
    </edge>
    <edge id=":249699645_0" function="internal">
        <lane id=":249699645_0_0" index="0" disallow="tram rail_urban rail rail_electric rail_fast ship container cable_car subway aircraft wheelchair scooter drone" speed="8.16" length="15.78" shape="378417.86,5822599.85 378416.74,5822603.63 378417.41,5822606.91 378419.85,5822609.69 378424.07,5822611.96"/>
    </edge>
    <edge id=":249699645_1" function="internal">
        <lane id=":249699645_1_0" index="0" disallow="tram rail_urban rail rail_electric rail_fast ship container cable_car subway aircraft wheelchair scooter drone" speed="7.05" length="10.59" shape="378417.86,5822599.85 378416.01,5822602.89 378414.07,5822604.77 378412.04,5822605.49 378409.91,5822605.05"/>
    </edge>
    <edge id=":249699645_2" function="internal">
        <lane id=":249699645_2_0" index="0" disallow="tram rail_urban rail rail_electric rail_fast ship container cable_car subway aircraft wheelchair scooter drone" speed="8.33" length="16.20" shape="378411.27,5822602.15 378414.52,5822604.32 378417.63,5822607.16 378420.75,5822609.95 378424.07,5822611.96"/>
    </edge>
    <edge id=":249699645_3" function="internal">
        <lane id=":249699645_3_0" index="0" disallow="tram rail_urban rail rail_electric rail_fast ship container cable_car subway aircraft wheelchair scooter drone" speed="3.65" length="4.67" shape="378411.27,5822602.15 378412.01,5822603.38 378412.04,5822604.28 378411.34,5822604.83 378409.91,5822605.05"/>
    </edge>
    <edge id=":253152203_0" function="internal">
        <lane id=":253152203_0_0" index="0" disallow="tram rail_urban rail rail_electric rail_fast ship container cable_car subway aircraft wheelchair scooter drone" speed="3.65" length="4.67" shape="378201.77,5823577.13 378200.89,5823578.28 378200.07,5823578.63 378199.29,5823578.18 378198.57,5823576.93"/>
    </edge>
    <edge id=":253446449_0" function="internal">
        <lane id=":253446449_0_0" index="0" disallow="tram rail_urban rail rail_electric rail_fast ship container cable_car subway aircraft wheelchair scooter drone" speed="5.00" length="8.76" width="6.00" shape="377730.04,5822836.02 377730.92,5822833.46 377732.18,5822832.36 377733.82,5822832.70 377735.84,5822834.50"/>
    </edge>
    <edge id=":255196475_0" function="internal">
        <lane id=":255196475_0_0" index="0" disallow="tram rail_urban rail rail_electric rail_fast ship container cable_car subway aircraft wheelchair scooter drone" speed="7.27" length="10.70" width="5.50" shape="378206.51,5823201.84 378203.60,5823200.65 378201.07,5823200.52 378198.91,5823201.46 378197.13,5823203.45"/>
    </edge>
    <edge id=":255196475_1" function="internal">
        <lane id=":255196475_1_0" index="0" disallow="tram rail_urban rail rail_electric rail_fast ship container cable_car subway aircraft wheelchair scooter drone" speed="9.01" length="18.61" width="5.50" shape="378206.51,5823201.84 378202.06,5823198.60 378199.70,5823194.97 378199.42,5823190.96 378201.23,5823186.57"/>
    </edge>
    <edge id=":255196475_2" function="internal">
        <lane id=":255196475_2_0" index="0" disallow="tram rail_urban rail rail_electric rail_fast ship container cable_car subway aircraft wheelchair scooter drone" speed="4.21" length="6.21" width="4.25" shape="378206.51,5823201.84 378205.63,5823200.14 378205.69,5823198.95 378206.67,5823198.28 378208.58,5823198.13"/>
    </edge>
    <edge id=":255196475_3" function="internal">
        <lane id=":255196475_3_0" index="0" disallow="tram rail_urban rail rail_electric rail_fast ship container cable_car subway aircraft wheelchair scooter drone" speed="7.06" length="10.44" width="4.25" shape="378205.89,5823189.48 378204.82,5823192.01 378204.91,5823194.30 378206.16,5823196.34 378208.58,5823198.13"/>
    </edge>
    <edge id=":255196475_4" function="internal">
        <lane id=":255196475_4_0" index="0" disallow="tram rail_urban rail rail_electric rail_fast ship container cable_car subway aircraft wheelchair scooter drone" speed="13.89" length="16.50" width="5.50" shape="378205.89,5823189.48 378197.13,5823203.45"/>
    </edge>
    <edge id=":255196475_5" function="internal">
        <lane id=":255196475_5_0" index="0" disallow="tram rail_urban rail rail_electric rail_fast ship container cable_car subway aircraft wheelchair scooter drone" speed="4.79" length="3.09" width="5.50" shape="378205.89,5823189.48 378203.64,5823190.50 378203.02,5823190.44"/>
    </edge>
    <edge id=":255196475_9" function="internal">
        <lane id=":255196475_9_0" index="0" disallow="tram rail_urban rail rail_electric rail_fast ship container cable_car subway aircraft wheelchair scooter drone" speed="4.79" length="4.94" width="5.50" shape="378203.02,5823190.44 378202.11,5823190.35 378201.30,5823189.04 378201.23,5823186.57"/>
    </edge>
    <edge id=":255196475_6" function="internal">
        <lane id=":255196475_6_0" index="0" disallow="tram rail_urban rail rail_electric rail_fast ship container cable_car subway aircraft wheelchair scooter drone" speed="13.89" length="16.46" width="5.50" shape="378192.48,5823200.51 378201.23,5823186.57"/>
    </edge>
    <edge id=":255196475_7" function="internal">
        <lane id=":255196475_7_0" index="0" disallow="tram rail_urban rail rail_electric rail_fast ship container cable_car subway aircraft wheelchair scooter drone" speed="9.37" length="6.15" width="4.25" shape="378192.48,5823200.51 378195.47,5823197.22 378197.05,5823196.58"/>
    </edge>
    <edge id=":255196475_8" function="internal">
        <lane id=":255196475_8_0" index="0" disallow="tram rail_urban rail rail_electric rail_fast ship container cable_car subway aircraft wheelchair scooter drone" speed="4.79" length="3.08" width="5.50" shape="378192.48,5823200.51 378194.74,5823199.50 378195.34,5823199.56"/>
    </edge>
    <edge id=":255196475_10" function="internal">
        <lane id=":255196475_10_0" index="0" disallow="tram rail_urban rail rail_electric rail_fast ship container cable_car subway aircraft wheelchair scooter drone" speed="9.37" length="12.13" width="4.25" shape="378197.05,5823196.58 378199.16,5823195.72 378203.52,5823196.03 378208.58,5823198.13"/>
    </edge>
    <edge id=":255196475_11" function="internal">
        <lane id=":255196475_11_0" index="0" disallow="tram rail_urban rail rail_electric rail_fast ship container cable_car subway aircraft wheelchair scooter drone" speed="4.79" length="4.95" width="5.50" shape="378195.34,5823199.56 378196.27,5823199.66 378197.07,5823200.97 378197.13,5823203.45"/>
    </edge>
    <edge id=":257614186_0" function="internal">
        <lane id=":257614186_0_0" index="0" disallow="tram rail_urban rail rail_electric rail_fast ship container cable_car subway aircraft wheelchair scooter drone" speed="4.79" length="8.03" width="5.50" shape="378014.79,5822815.06 378014.32,5822812.63 378014.82,5822811.17 378016.28,5822810.70 378018.71,5822811.20"/>
    </edge>
    <edge id=":259235589_0" function="internal">
        <lane id=":259235589_0_0" index="0" disallow="tram rail_urban rail rail_electric rail_fast ship container cable_car subway aircraft wheelchair scooter drone" speed="8.33" length="13.18" width="5.00" shape="378198.96,5822572.62 378196.08,5822570.61 378193.69,5822568.42 378191.21,5822566.57 378188.02,5822565.60"/>
    </edge>
    <edge id=":259235589_1" function="internal">
        <lane id=":259235589_1_0" index="0" disallow="tram rail_urban rail rail_electric rail_fast ship container cable_car subway aircraft wheelchair scooter drone" speed="5.40" length="10.22" width="7.00" shape="378198.96,5822572.62 378197.44,5822569.86 378197.47,5822567.90 378199.06,5822566.75 378202.20,5822566.42"/>
    </edge>
    <edge id=":259235589_2" function="internal">
        <lane id=":259235589_2_0" index="0" disallow="tram rail_urban rail rail_electric rail_fast ship container cable_car subway aircraft wheelchair scooter drone" speed="8.33" length="11.94" width="7.00" shape="378197.45,5822556.05 378197.83,5822559.70 378198.75,5822562.65 378200.21,5822564.89 378202.20,5822566.42"/>
    </edge>
    <edge id=":259235589_3" function="internal">
        <lane id=":259235589_3_0" index="0" disallow="tram rail_urban rail rail_electric rail_fast ship container cable_car subway aircraft wheelchair scooter drone" speed="8.30" length="15.76" width="5.00" shape="378197.45,5822556.05 378196.98,5822560.57 378195.25,5822563.66 378192.26,5822565.34 378188.02,5822565.60"/>
    </edge>
    <edge id=":260601467_0" function="internal">
        <lane id=":260601467_0_0" index="0" disallow="tram rail_urban rail rail_electric rail_fast ship container cable_car subway aircraft wheelchair scooter drone" speed="8.33" length="11.58" width="4.50" shape="378084.87,5822477.91 378083.33,5822475.08 378082.27,5822472.74 378081.42,5822470.31 378080.53,5822467.22"/>
    </edge>
    <edge id=":260601467_1" function="internal">
        <lane id=":260601467_1_0" index="0" disallow="tram rail_urban rail rail_electric rail_fast ship container cable_car subway aircraft wheelchair scooter drone" speed="6.16" length="9.61" width="4.50" shape="378087.97,5822469.78 378085.32,5822470.88 378083.20,5822470.82 378081.60,5822469.60 378080.53,5822467.22"/>
    </edge>
    <edge id=":260601470_0" function="internal">
        <lane id=":260601470_0_0" index="0" disallow="tram rail_urban rail rail_electric rail_fast ship container cable_car subway aircraft wheelchair scooter drone" speed="8.33" length="7.28" width="6.00" shape="378132.15,5822440.71 378133.43,5822442.44 378134.50,5822443.49 378135.52,5822444.57 378136.66,5822446.38"/>
    </edge>
    <edge id=":260601470_1" function="internal">
        <lane id=":260601470_1_0" index="0" disallow="tram rail_urban rail rail_electric rail_fast ship container cable_car subway aircraft wheelchair scooter drone" speed="6.05" length="6.61" width="3.00" shape="378132.15,5822440.71 378132.60,5822442.03 378132.30,5822443.33 378131.24,5822444.62 378129.43,5822445.89"/>
    </edge>
    <edge id=":26759374_0" function="internal">
        <lane id=":26759374_0_0" index="0" disallow="pedestrian tram rail_urban rail rail_electric rail_fast ship container cable_car subway aircraft wheelchair scooter drone" speed="7.97" length="14.24" shape="379093.98,5822363.83 379091.78,5822360.15 379089.19,5822358.01 379086.18,5822357.40 379082.77,5822358.32"/>