<?xml version="1.0" encoding="UTF-8"?>

<!-- generated on 2025-11-15 15:40:02 by Eclipse SUMO netconvert Version 1.24.0
<netconvertConfiguration xmlns:xsi="http://www.w3.org/2001/XMLSchema-instance" xsi:noNamespaceSchemaLocation="http://sumo.dlr.de/xsd/netconvertConfiguration.xsd">

    <input>
        <type-files value="/usr/share/sumo/data/typemap/osmNetconvert.typ.xml"/>
        <osm-files value="generated_maps/osm_raw/manhattan_grid.osm"/>
    </input>

    <output>
        <output-file value="generated_maps/sumo_networks/urban_grid/manhattan_grid.net.xml"/>
    </output>

    <projection>
        <proj.utm value="true"/>
        <proj.plain-geo value="true"/>
    </projection>

    <processing>
        <geometry.remove value="true"/>
        <roundabouts.guess value="true"/>
    </processing>

    <tls_building>
        <tls.join value="true"/>
        <tls.guess-signals value="true"/>
    </tls_building>

    <ramp_guessing>
        <ramps.guess value="true"/>
    </ramp_guessing>

    <edge_removal>
        <keep-edges.by-vclass value="passenger"/>
        <remove-edges.isolated value="true"/>
    </edge_removal>

    <junctions>
        <junctions.join value="true"/>
    </junctions>

    <report>
        <verbose value="true"/>
    </report>

</netconvertConfiguration>
-->

<net version="1.20" junctionCornerDetail="5" limitTurnSpeed="5.50" xmlns:xsi="http://www.w3.org/2001/XMLSchema-instance" xsi:noNamespaceSchemaLocation="http://sumo.dlr.de/xsd/net_file.xsd">

    <location netOffset="-584877.64,-4511662.27" convBoundary="0.00,0.00,687.52,424.13" origBoundary="-73.994840,40.751154,-73.986399,40.755346" projParameter="+proj=utm +zone=18 +ellps=WGS84 +datum=WGS84 +units=m +no_defs"/>

    <type id="highway.residential" priority="3" numLanes="1" speed="13.89" disallow="tram rail_urban rail rail_electric rail_fast ship container cable_car subway aircraft wheelchair scooter drone" oneway="0"/>
    <type id="highway.secondary" priority="11" numLanes="1" speed="27.78" disallow="tram rail_urban rail rail_electric rail_fast ship container cable_car subway aircraft wheelchair scooter drone" oneway="0"/>

    <edge id=":10168381348_0" function="internal">
        <lane id=":10168381348_0_0" index="0" disallow="tram rail_urban rail rail_electric rail_fast ship container cable_car subway aircraft wheelchair scooter drone" speed="13.89" length="0.30" shape="289.70,418.64 289.44,418.78"/>
    </edge>
    <edge id=":10169532523_0" function="internal">
        <lane id=":10169532523_0_0" index="0" disallow="tram rail_urban rail rail_electric rail_fast ship container cable_car subway aircraft wheelchair scooter drone" speed="11.18" length="0.30" shape="606.84,70.30 606.58,70.45"/>
    </edge>
    <edge id=":10169532559_0" function="internal">
        <lane id=":10169532559_0_0" index="0" disallow="tram rail_urban rail rail_electric rail_fast ship container cable_car subway aircraft wheelchair scooter drone" speed="11.18" length="0.30" shape="675.93,32.21 675.67,32.35"/>
    </edge>
    <edge id=":cluster_10168381341_10168381343_42433620_0" function="internal">
        <lane id=":cluster_10168381341_10168381343_42433620_0_0" index="0" disallow="tram rail_urban rail rail_electric rail_fast ship container cable_car subway aircraft wheelchair scooter drone" speed="9.45" length="20.29" shape="235.68,349.72 238.12,352.02 242.02,352.49 247.36,351.14 254.15,347.97"/>
    </edge>
    <edge id=":cluster_10169505515_10169505516_10169532517_10169532518_#1more_0" function="internal">
        <lane id=":cluster_10169505515_10169505516_10169532517_10169532518_#1more_0_0" index="0" disallow="tram rail_urban rail rail_electric rail_fast ship container cable_car subway aircraft wheelchair scooter drone" speed="7.61" length="12.72" shape="447.08,164.59 445.18,162.26 442.69,161.19 439.63,161.40 435.99,162.89"/>
    </edge>
    <edge id=":cluster_10169505515_10169505516_10169532517_10169532518_#1more_1" function="internal">
        <lane id=":cluster_10169505515_10169505516_10169532517_10169532518_#1more_1_0" index="0" disallow="tram rail_urban rail rail_electric rail_fast ship container cable_car subway aircraft wheelchair scooter drone" speed="11.18" length="15.56" shape="447.08,164.59 439.66,150.92"/>
        <lane id=":cluster_10169505515_10169505516_10169532517_10169532518_#1more_1_1" index="1" disallow="tram rail_urban rail rail_electric rail_fast ship container cable_car subway aircraft wheelchair scooter drone" speed="11.18" length="15.56" shape="449.89,163.07 442.47,149.39"/>
        <lane id=":cluster_10169505515_10169505516_10169532517_10169532518_#1more_1_2" index="2" disallow="tram rail_urban rail rail_electric rail_fast ship container cable_car subway aircraft wheelchair scooter drone" speed="11.18" length="15.56" shape="452.71,161.54 445.28,147.86"/>
    </edge>
    <edge id=":cluster_10169505515_10169505516_10169532517_10169532518_#1more_4" function="internal">
        <lane id=":cluster_10169505515_10169505516_10169532517_10169532518_#1more_4_0" index="0" disallow="tram rail_urban rail rail_electric rail_fast ship container cable_car subway aircraft wheelchair scooter drone" speed="11.18" length="24.16" shape="457.27,151.49 435.99,162.89"/>
        <lane id=":cluster_10169505515_10169505516_10169532517_10169532518_#1more_4_1" index="1" disallow="tram rail_urban rail rail_electric rail_fast ship container cable_car subway aircraft wheelchair scooter drone" speed="11.18" length="24.16" shape="455.78,148.66 434.47,160.07"/>
    </edge>
    <edge id=":cluster_10169505515_10169505516_10169532517_10169532518_#1more_6" function="internal">
        <lane id=":cluster_10169505515_10169505516_10169532517_10169532518_#1more_6_0" index="0" disallow="tram rail_urban rail rail_electric rail_fast ship container cable_car subway aircraft wheelchair scooter drone" speed="8.15" length="14.63" shape="455.78,148.66 450.95,150.81 447.12,151.65 444.30,151.18 442.47,149.39"/>
        <lane id=":cluster_10169505515_10169505516_10169532517_10169532518_#1more_6_1" index="1" disallow="tram rail_urban rail rail_electric rail_fast ship container cable_car subway aircraft wheelchair scooter drone" speed="7.38" length="11.81" shape="455.78,148.66 452.19,150.16 449.24,150.52 446.94,149.76 445.28,147.86"/>
    </edge>
    <edge id=":cluster_10169532524_10169532525_10169532526_42428264_0" function="internal">
        <lane id=":cluster_10169532524_10169532525_10169532526_42428264_0_0" index="0" disallow="tram rail_urban rail rail_electric rail_fast ship container cable_car subway aircraft wheelchair scooter drone" speed="6.37" length="10.56" shape="592.30,87.02 591.35,84.60 589.66,83.42 587.20,83.46 584.00,84.73"/>
    </edge>
    <edge id=":cluster_10169532524_10169532525_10169532526_42428264_1" function="internal">
        <lane id=":cluster_10169532524_10169532525_10169532526_42428264_1_0" index="0" disallow="tram rail_urban rail rail_electric rail_fast ship container cable_car subway aircraft wheelchair scooter drone" speed="7.82" length="16.31" shape="592.30,87.02 589.66,70.92"/>
    </edge>
    <edge id=":cluster_10169532524_10169532525_10169532526_42428264_2" function="internal">
        <lane id=":cluster_10169532524_10169532525_10169532526_42428264_2_0" index="0" disallow="tram rail_urban rail rail_electric rail_fast ship container cable_car subway aircraft wheelchair scooter drone" speed="11.18" length="15.04" shape="596.35,76.11 593.51,77.99 591.03,80.02 588.12,82.25 584.00,84.73"/>
        <lane id=":cluster_10169532524_10169532525_10169532526_42428264_2_1" index="1" disallow="tram rail_urban rail rail_electric rail_fast ship container cable_car subway aircraft wheelchair scooter drone" speed="11.18" length="15.04" shape="596.35,76.11 593.27,77.55 590.28,78.61 586.86,79.86 582.51,81.90"/>
    </edge>
    <edge id=":cluster_10169532524_10169532525_10169532526_42428264_4" function="internal">
        <lane id=":cluster_10169532524_10169532525_10169532526_42428264_4_0" index="0" disallow="tram rail_urban rail rail_electric rail_fast ship container cable_car subway aircraft wheelchair scooter drone" speed="6.27" length="10.63" shape="596.35,76.11 593.85,76.94 591.91,76.35 590.51,74.34 589.66,70.92"/>
    </edge>
    <edge id=":cluster_10169532539_10169532540_10169532541_10169532542_#1more_0" function="internal">
        <lane id=":cluster_10169532539_10169532540_10169532541_10169532542_#1more_0_0" index="0" disallow="tram rail_urban rail rail_electric rail_fast ship container cable_car subway aircraft wheelchair scooter drone" speed="8.03" length="14.30" shape="523.07,304.49 520.81,301.45 518.04,299.89 514.76,299.81 510.96,301.22"/>
    </edge>
    <edge id=":cluster_10169532539_10169532540_10169532541_10169532542_#1more_1" function="internal">
        <lane id=":cluster_10169532539_10169532540_10169532541_10169532542_#1more_1_0" index="0" disallow="tram rail_urban rail rail_electric rail_fast ship container cable_car subway aircraft wheelchair scooter drone" speed="11.18" length="17.94" shape="523.07,304.49 514.62,288.71"/>
        <lane id=":cluster_10169532539_10169532540_10169532541_10169532542_#1more_1_1" index="1" disallow="tram rail_urban rail rail_electric rail_fast ship container cable_car subway aircraft wheelchair scooter drone" speed="11.18" length="17.94" shape="525.90,303.00 517.43,287.18"/>
        <lane id=":cluster_10169532539_10169532540_10169532541_10169532542_#1more_1_2" index="2" disallow="tram rail_urban rail rail_electric rail_fast ship container cable_car subway aircraft wheelchair scooter drone" speed="11.18" length="17.94" shape="528.72,301.50 520.24,285.65"/>
    </edge>
    <edge id=":cluster_10169532539_10169532540_10169532541_10169532542_#1more_4" function="internal">
        <lane id=":cluster_10169532539_10169532540_10169532541_10169532542_#1more_4_0" index="0" disallow="tram rail_urban rail rail_electric rail_fast ship container cable_car subway aircraft wheelchair scooter drone" speed="13.89" length="23.49" shape="532.55,291.97 526.09,295.09 520.11,297.50 514.96,299.45 510.96,301.22"/>
    </edge>
    <edge id=":cluster_10169532539_10169532540_10169532541_10169532542_#1more_5" function="internal">
        <lane id=":cluster_10169532539_10169532540_10169532541_10169532542_#1more_5_0" index="0" disallow="tram rail_urban rail rail_electric rail_fast ship container cable_car subway aircraft wheelchair scooter drone" speed="8.36" length="15.56" shape="531.03,289.16 526.55,290.99 522.80,291.28 519.76,290.00 517.43,287.18"/>
        <lane id=":cluster_10169532539_10169532540_10169532541_10169532542_#1more_5_1" index="1" disallow="tram rail_urban rail rail_electric rail_fast ship container cable_car subway aircraft wheelchair scooter drone" speed="7.67" length="12.92" shape="531.03,289.16 527.78,290.33 524.91,290.13 522.39,288.57 520.24,285.65"/>
    </edge>
    <edge id=":cluster_10169532547_42439952_9945692442_0" function="internal">
        <lane id=":cluster_10169532547_42439952_9945692442_0_0" index="0" disallow="tram rail_urban rail rail_electric rail_fast ship container cable_car subway aircraft wheelchair scooter drone" speed="9.29" length="19.67" shape="378.73,23.07 376.25,20.50 372.46,19.74 367.37,20.82 360.97,23.71"/>
    </edge>
    <edge id=":cluster_10169532564_10169532565_10169532566_10169532567_#1more_0" function="internal">
        <lane id=":cluster_10169532564_10169532565_10169532566_10169532567_#1more_0_0" index="0" disallow="tram rail_urban rail rail_electric rail_fast ship container cable_car subway aircraft wheelchair scooter drone" speed="11.18" length="17.84" shape="485.02,234.47 476.50,218.80"/>
        <lane id=":cluster_10169532564_10169532565_10169532566_10169532567_#1more_0_1" index="1" disallow="tram rail_urban rail rail_electric rail_fast ship container cable_car subway aircraft wheelchair scooter drone" speed="11.18" length="17.84" shape="487.83,232.94 479.31,217.27"/>
        <lane id=":cluster_10169532564_10169532565_10169532566_10169532567_#1more_0_2" index="2" disallow="tram rail_urban rail rail_electric rail_fast ship container cable_car subway aircraft wheelchair scooter drone" speed="11.18" length="17.84" shape="490.64,231.41 482.12,215.74"/>
    </edge>
    <edge id=":cluster_10169532564_10169532565_10169532566_10169532567_#1more_3" function="internal">
        <lane id=":cluster_10169532564_10169532565_10169532566_10169532567_#1more_3_0" index="0" disallow="tram rail_urban rail rail_electric rail_fast ship container cable_car subway aircraft wheelchair scooter drone" speed="8.06" length="14.43" shape="490.64,231.41 489.24,227.67 489.35,224.40 490.97,221.59 494.11,219.24"/>
    </edge>
    <edge id=":cluster_10169532564_10169532565_10169532566_10169532567_#1more_4" function="internal">
        <lane id=":cluster_10169532564_10169532565_10169532566_10169532567_#1more_4_0" index="0" disallow="tram rail_urban rail rail_electric rail_fast ship container cable_car subway aircraft wheelchair scooter drone" speed="7.72" length="13.15" shape="472.09,229.49 475.32,227.22 477.13,224.68 477.53,221.87 476.50,218.80"/>
    </edge>
    <edge id=":cluster_10169532564_10169532565_10169532566_10169532567_#1more_5" function="internal">
        <lane id=":cluster_10169532564_10169532565_10169532566_10169532567_#1more_5_0" index="0" disallow="tram rail_urban rail rail_electric rail_fast ship container cable_car subway aircraft wheelchair scooter drone" speed="13.89" length="24.30" shape="472.09,229.49 492.59,216.43"/>
        <lane id=":cluster_10169532564_10169532565_10169532566_10169532567_#1more_5_1" index="1" disallow="tram rail_urban rail rail_electric rail_fast ship container cable_car subway aircraft wheelchair scooter drone" speed="13.89" length="24.30" shape="472.09,229.49 494.11,219.24"/>
    </edge>
    <edge id=":cluster_10169532572_10169532573_10169532574_10169532575_#1more_0" function="internal">
        <lane id=":cluster_10169532572_10169532573_10169532574_10169532575_#1more_0_0" index="0" disallow="tram rail_urban rail rail_electric rail_fast ship container cable_car subway aircraft wheelchair scooter drone" speed="11.18" length="15.32" shape="409.78,95.83 402.55,82.27"/>
        <lane id=":cluster_10169532572_10169532573_10169532574_10169532575_#1more_0_1" index="1" disallow="tram rail_urban rail rail_electric rail_fast ship container cable_car subway aircraft wheelchair scooter drone" speed="11.18" length="15.32" shape="412.59,94.30 405.39,80.79"/>
        <lane id=":cluster_10169532572_10169532573_10169532574_10169532575_#1more_0_2" index="2" disallow="tram rail_urban rail rail_electric rail_fast ship container cable_car subway aircraft wheelchair scooter drone" speed="11.18" length="15.32" shape="415.40,92.78 408.22,79.30"/>
    </edge>
    <edge id=":cluster_10169532572_10169532573_10169532574_10169532575_#1more_3" function="internal">
        <lane id=":cluster_10169532572_10169532573_10169532574_10169532575_#1more_3_0" index="0" disallow="tram rail_urban rail rail_electric rail_fast ship container cable_car subway aircraft wheelchair scooter drone" speed="7.31" length="11.70" shape="415.40,92.78 414.72,90.37 415.34,88.05 417.26,85.83 420.48,83.69"/>
    </edge>
    <edge id=":cluster_10169532572_10169532573_10169532574_10169532575_#1more_4" function="internal">
        <lane id=":cluster_10169532572_10169532573_10169532574_10169532575_#1more_4_0" index="0" disallow="tram rail_urban rail rail_electric rail_fast ship container cable_car subway aircraft wheelchair scooter drone" speed="7.53" length="12.37" shape="397.91,92.17 401.07,90.01 402.90,87.64 403.40,85.06 402.55,82.27"/>
    </edge>
    <edge id=":cluster_10169532572_10169532573_10169532574_10169532575_#1more_5" function="internal">
        <lane id=":cluster_10169532572_10169532573_10169532574_10169532575_#1more_5_0" index="0" disallow="tram rail_urban rail rail_electric rail_fast ship container cable_car subway aircraft wheelchair scooter drone" speed="27.78" length="23.90" shape="397.91,92.17 418.96,80.88"/>
        <lane id=":cluster_10169532572_10169532573_10169532574_10169532575_#1more_5_1" index="1" disallow="tram rail_urban rail rail_electric rail_fast ship container cable_car subway aircraft wheelchair scooter drone" speed="27.78" length="23.90" shape="399.42,94.99 420.48,83.69"/>
    </edge>
    <edge id=":cluster_10173490596_10268795787_0" function="internal">
        <lane id=":cluster_10173490596_10268795787_0_0" index="0" disallow="tram rail_urban rail rail_electric rail_fast ship container cable_car subway aircraft wheelchair scooter drone" speed="13.89" length="5.68" shape="620.40,244.66 615.41,247.35"/>
        <lane id=":cluster_10173490596_10268795787_0_1" index="1" disallow="tram rail_urban rail rail_electric rail_fast ship container cable_car subway aircraft wheelchair scooter drone" speed="13.89" length="5.68" shape="618.88,241.84 613.88,244.54"/>
    </edge>
    <edge id=":cluster_10173490603_10173490604_42428268_0" function="internal">
        <lane id=":cluster_10173490603_10173490604_42428268_0_0" index="0" disallow="tram rail_urban rail rail_electric rail_fast ship container cable_car subway aircraft wheelchair scooter drone" speed="9.18" length="14.92" shape="597.34,163.20 600.97,160.73 603.36,157.92 604.52,154.77 604.44,151.28"/>
    </edge>
    <edge id=":cluster_42435650_8660596973_8660596982_8660596985_#1more_0" function="internal">
        <lane id=":cluster_42435650_8660596973_8660596982_8660596985_#1more_0_0" index="0" disallow="tram rail_urban rail rail_electric rail_fast ship container cable_car subway aircraft wheelchair scooter drone" speed="7.73" length="13.16" shape="216.86,281.12 213.42,283.46 211.42,285.98 210.86,288.69 211.74,291.58"/>
    </edge>
    <edge id=":cluster_42435650_8660596973_8660596982_8660596985_#1more_1" function="internal">
        <lane id=":cluster_42435650_8660596973_8660596982_8660596985_#1more_1_0" index="0" disallow="tram rail_urban rail rail_electric rail_fast ship container cable_car subway aircraft wheelchair scooter drone" speed="11.18" length="25.90" shape="216.86,281.12 194.07,293.43"/>
        <lane id=":cluster_42435650_8660596973_8660596982_8660596985_#1more_1_1" index="1" disallow="tram rail_urban rail rail_electric rail_fast ship container cable_car subway aircraft wheelchair scooter drone" speed="11.18" length="25.90" shape="215.34,278.31 192.56,290.61"/>
    </edge>
    <edge id=":cluster_42435650_8660596973_8660596982_8660596985_#1more_3" function="internal">
        <lane id=":cluster_42435650_8660596973_8660596982_8660596985_#1more_3_0" index="0" disallow="tram rail_urban rail rail_electric rail_fast ship container cable_car subway aircraft wheelchair scooter drone" speed="11.18" length="15.56" shape="204.39,277.86 211.74,291.58"/>
        <lane id=":cluster_42435650_8660596973_8660596982_8660596985_#1more_3_1" index="1" disallow="tram rail_urban rail rail_electric rail_fast ship container cable_car subway aircraft wheelchair scooter drone" speed="11.18" length="15.56" shape="201.57,279.38 208.92,293.09"/>
        <lane id=":cluster_42435650_8660596973_8660596982_8660596985_#1more_3_2" index="2" disallow="tram rail_urban rail rail_electric rail_fast ship container cable_car subway aircraft wheelchair scooter drone" speed="11.18" length="15.56" shape="198.75,280.90 206.10,294.60"/>
    </edge>
    <edge id=":cluster_42435650_8660596973_8660596982_8660596985_#1more_6" function="internal">
        <lane id=":cluster_42435650_8660596973_8660596982_8660596985_#1more_6_0" index="0" disallow="tram rail_urban rail rail_electric rail_fast ship container cable_car subway aircraft wheelchair scooter drone" speed="7.64" length="12.84" shape="198.75,280.90 199.36,283.36 198.53,285.80 196.26,288.22 192.56,290.61"/>
    </edge>

    <edge id="1049920716#1" from="cluster_10169532533_42439968" to="cluster_10169532539_10169532540_10169532541_10169532542_#1more" priority="11" type="highway.secondary" spreadType="center" shape="554.62,357.34 525.90,303.00">
        <lane id="1049920716#1_0" index="0" disallow="tram rail_urban rail rail_electric rail_fast ship container cable_car subway aircraft wheelchair scooter drone" speed="11.18" length="64.98" shape="553.43,361.94 523.07,304.49"/>
        <lane id="1049920716#1_1" index="1" disallow="tram rail_urban rail rail_electric rail_fast ship container cable_car subway aircraft wheelchair scooter drone" speed="11.18" length="64.98" shape="556.26,360.44 525.90,303.00"/>
        <lane id="1049920716#1_2" index="2" disallow="tram rail_urban rail rail_electric rail_fast ship container cable_car subway aircraft wheelchair scooter drone" speed="11.18" length="64.98" shape="559.09,358.95 528.72,301.50"/>
    </edge>
    <edge id="1049920717#1" from="cluster_10169532564_10169532565_10169532566_10169532567_#1more" to="cluster_10173490603_10173490604_42428268" priority="3" type="highway.residential" spreadType="center" shape="493.35,217.84 596.58,161.80">
        <lane id="1049920717#1_0" index="0" disallow="tram rail_urban rail rail_electric rail_fast ship container cable_car subway aircraft wheelchair scooter drone" speed="13.89" length="117.46" shape="492.59,216.43 595.81,160.39"/>
        <lane id="1049920717#1_1" index="1" disallow="tram rail_urban rail rail_electric rail_fast ship container cable_car subway aircraft wheelchair scooter drone" speed="13.89" length="117.46" shape="494.11,219.24 597.34,163.20"/>
    </edge>
    <edge id="1049920718#1" from="cluster_10169532539_10169532540_10169532541_10169532542_#1more" to="cluster_10169532564_10169532565_10169532566_10169532567_#1more" priority="11" type="highway.secondary" spreadType="center" shape="517.43,287.18 487.83,232.94">
        <lane id="1049920718#1_0" index="0" disallow="tram rail_urban rail rail_electric rail_fast ship container cable_car subway aircraft wheelchair scooter drone" speed="11.18" length="61.79" shape="514.62,288.71 485.02,234.47"/>
        <lane id="1049920718#1_1" index="1" disallow="tram rail_urban rail rail_electric rail_fast ship container cable_car subway aircraft wheelchair scooter drone" speed="11.18" length="61.79" shape="517.43,287.18 487.83,232.94"/>
        <lane id="1049920718#1_2" index="2" disallow="tram rail_urban rail rail_electric rail_fast ship container cable_car subway aircraft wheelchair scooter drone" speed="11.18" length="61.79" shape="520.24,285.65 490.64,231.41"/>
    </edge>
    <edge id="1070126888#0" from="42428272" to="cluster_10173490596_10268795787" priority="3" type="highway.residential" spreadType="center" shape="628.45,238.55 623.62,241.11 619.64,243.25">
        <lane id="1070126888#0_0" index="0" disallow="tram rail_urban rail rail_electric rail_fast ship container cable_car subway aircraft wheelchair scooter drone" speed="13.89" length="9.99" shape="629.20,239.96 624.37,242.52 620.40,244.66"/>
        <lane id="1070126888#0_1" index="1" disallow="tram rail_urban rail rail_electric rail_fast ship container cable_car subway aircraft wheelchair scooter drone" speed="13.89" length="9.99" shape="627.70,237.13 622.86,239.70 618.88,241.84"/>
    </edge>
    <edge id="1070126888#2" from="cluster_10173490596_10268795787" to="cluster_10169532539_10169532540_10169532541_10169532542_#1more" priority="3" type="highway.residential" spreadType="center" shape="614.64,245.95 590.00,259.29 559.59,275.54 531.79,290.57">
        <lane id="1070126888#2_0" index="0" disallow="tram rail_urban rail rail_electric rail_fast ship container cable_car subway aircraft wheelchair scooter drone" speed="13.89" length="94.11" shape="615.41,247.35 590.76,260.69 560.35,276.95 532.55,291.97"/>
        <lane id="1070126888#2_1" index="1" disallow="tram rail_urban rail rail_electric rail_fast ship container cable_car subway aircraft wheelchair scooter drone" speed="13.89" length="94.11" shape="613.88,244.54 589.24,257.88 558.84,274.13 531.03,289.16"/>
    </edge>
    <edge id="1124078897#1" from="cluster_42435646_8660596952_8660596994" to="cluster_42435650_8660596973_8660596982_8660596985_#1more" priority="11" type="highway.secondary" spreadType="center" shape="171.69,223.87 201.65,279.53">
        <lane id="1124078897#1_0" index="0" disallow="tram rail_urban rail rail_electric rail_fast ship container cable_car subway aircraft wheelchair scooter drone" speed="11.18" length="63.04" shape="174.51,222.36 204.39,277.86"/>
        <lane id="1124078897#1_1" index="1" disallow="tram rail_urban rail rail_electric rail_fast ship container cable_car subway aircraft wheelchair scooter drone" speed="11.18" length="63.04" shape="171.69,223.87 201.57,279.38"/>
        <lane id="1124078897#1_2" index="2" disallow="tram rail_urban rail rail_electric rail_fast ship container cable_car subway aircraft wheelchair scooter drone" speed="11.18" length="63.04" shape="168.87,225.39 198.75,280.90"/>
    </edge>
    <edge id="1124078898#1" from="cluster_42435650_8660596973_8660596982_8660596985_#1more" to="cluster_10168381341_10168381343_42433620" priority="11" type="highway.secondary" spreadType="center" shape="208.92,293.09 238.50,348.21">
        <lane id="1124078898#1_0" index="0" disallow="tram rail_urban rail rail_electric rail_fast ship container cable_car subway aircraft wheelchair scooter drone" speed="11.18" length="62.55" shape="211.74,291.58 241.32,346.70"/>
        <lane id="1124078898#1_1" index="1" disallow="tram rail_urban rail rail_electric rail_fast ship container cable_car subway aircraft wheelchair scooter drone" speed="11.18" length="62.55" shape="208.92,293.09 238.50,348.21"/>
        <lane id="1124078898#1_2" index="2" disallow="tram rail_urban rail rail_electric rail_fast ship container cable_car subway aircraft wheelchair scooter drone" speed="11.18" length="62.55" shape="206.10,294.60 235.68,349.72"/>
    </edge>
    <edge id="1135620537#1" from="cluster_10169532572_10169532573_10169532574_10169532575_#1more" to="cluster_10169532584_10169532585_42428258" priority="11" type="highway.secondary" spreadType="center" shape="419.72,82.29 571.95,0.11">
        <lane id="1135620537#1_0" index="0" disallow="tram rail_urban rail rail_electric rail_fast ship container cable_car subway aircraft wheelchair scooter drone" speed="27.78" length="172.99" shape="418.96,80.88 571.19,-1.30"/>
        <lane id="1135620537#1_1" index="1" disallow="tram rail_urban rail rail_electric rail_fast ship container cable_car subway aircraft wheelchair scooter drone" speed="27.78" length="172.99" shape="420.48,83.69 572.71,1.51"/>
    </edge>
    <edge id="1135620538#1" from="cluster_10169505515_10169505516_10169532517_10169532518_#1more" to="cluster_10169532572_10169532573_10169532574_10169532575_#1more" priority="11" type="highway.secondary" spreadType="center" shape="442.84,150.08 412.59,94.30">
        <lane id="1135620538#1_0" index="0" disallow="tram rail_urban rail rail_electric rail_fast ship container cable_car subway aircraft wheelchair scooter drone" speed="11.18" length="62.67" shape="439.66,150.92 409.78,95.83"/>
        <lane id="1135620538#1_1" index="1" disallow="tram rail_urban rail rail_electric rail_fast ship container cable_car subway aircraft wheelchair scooter drone" speed="11.18" length="62.67" shape="442.47,149.39 412.59,94.30"/>
        <lane id="1135620538#1_2" index="2" disallow="tram rail_urban rail rail_electric rail_fast ship container cable_car subway aircraft wheelchair scooter drone" speed="11.18" length="62.67" shape="445.28,147.86 415.40,92.78"/>
    </edge>
    <edge id="1376929274#1" from="cluster_10169532564_10169532565_10169532566_10169532567_#1more" to="cluster_10169505515_10169505516_10169532517_10169532518_#1more" priority="11" type="highway.secondary" spreadType="center" shape="479.90,218.37 467.41,195.36 449.89,163.07">
        <lane id="1376929274#1_0" index="0" disallow="tram rail_urban rail rail_electric rail_fast ship container cable_car subway aircraft wheelchair scooter drone" speed="11.18" length="61.67" shape="476.50,218.80 464.60,196.88 447.08,164.59"/>
        <lane id="1376929274#1_1" index="1" disallow="tram rail_urban rail rail_electric rail_fast ship container cable_car subway aircraft wheelchair scooter drone" speed="11.18" length="61.67" shape="479.31,217.27 467.41,195.36 449.89,163.07"/>
        <lane id="1376929274#1_2" index="2" disallow="tram rail_urban rail rail_electric rail_fast ship container cable_car subway aircraft wheelchair scooter drone" speed="11.18" length="61.67" shape="482.12,215.74 470.23,193.83 452.71,161.54"/>
    </edge>
    <edge id="464543614#1" from="cluster_10169505515_10169505516_10169532517_10169532518_#1more" to="cluster_42435650_8660596973_8660596982_8660596985_#1more" priority="11" type="highway.secondary" spreadType="center" shape="435.23,161.48 246.22,263.47 216.10,279.72">
        <lane id="464543614#1_0" index="0" disallow="tram rail_urban rail rail_electric rail_fast ship container cable_car subway aircraft wheelchair scooter drone" speed="11.18" length="249.00" shape="435.99,162.89 246.98,264.87 216.86,281.12"/>
        <lane id="464543614#1_1" index="1" disallow="tram rail_urban rail rail_electric rail_fast ship container cable_car subway aircraft wheelchair scooter drone" speed="11.18" length="249.00" shape="434.47,160.07 245.46,262.06 215.34,278.31"/>
    </edge>
    <edge id="464543615#1" from="cluster_10169532572_10169532573_10169532574_10169532575_#1more" to="cluster_10169532547_42439952_9945692442" priority="11" type="highway.secondary" spreadType="center" shape="405.39,80.79 375.90,24.56">
        <lane id="464543615#1_0" index="0" disallow="tram rail_urban rail rail_electric rail_fast ship container cable_car subway aircraft wheelchair scooter drone" speed="11.18" length="63.49" shape="402.55,82.27 373.07,26.05"/>
        <lane id="464543615#1_1" index="1" disallow="tram rail_urban rail rail_electric rail_fast ship container cable_car subway aircraft wheelchair scooter drone" speed="11.18" length="63.49" shape="405.39,80.79 375.90,24.56"/>