<?xml version="1.0" encoding="UTF-8"?>

<!-- generated on 2025-11-14 17:28:21 by Eclipse SUMO netconvert Version 1.24.0
<netconvertConfiguration xmlns:xsi="http://www.w3.org/2001/XMLSchema-instance" xsi:noNamespaceSchemaLocation="http://sumo.dlr.de/xsd/netconvertConfiguration.xsd">

    <input>
        <osm-files value="map.osm"/>
    </input>

    <output>
        <output-file value="midwest_rural.net.xml"/>
    </output>

    <projection>
        <proj.utm value="true"/>
    </projection>

    <processing>
        <geometry.remove value="true"/>
    </processing>

    <junctions>
        <junctions.corner-detail value="5"/>
    </junctions>

</netconvertConfiguration>
-->

<net version="1.20" junctionCornerDetail="5" limitTurnSpeed="5.50" xmlns:xsi="http://www.w3.org/2001/XMLSchema-instance" xsi:noNamespaceSchemaLocation="http://sumo.dlr.de/xsd/net_file.xsd">

    <location netOffset="-657354.38,-4284774.51" convBoundary="0.00,0.00,22484.09,23013.62" origBoundary="-97.185775,38.696076,-96.926599,38.922787" projParameter="+proj=utm +zone=14 +ellps=WGS84 +datum=WGS84 +units=m +no_defs"/>

    <type id="highway.residential" priority="3" numLanes="1" speed="13.89" disallow="tram rail_urban rail rail_electric rail_fast ship container cable_car subway aircraft wheelchair scooter drone" oneway="0"/>
    <type id="highway.service" priority="1" numLanes="1" speed="5.56" allow="pedestrian delivery bicycle" oneway="0"/>
    <type id="highway.tertiary" priority="10" numLanes="1" speed="22.22" disallow="tram rail_urban rail rail_electric rail_fast ship container cable_car subway aircraft wheelchair scooter drone" oneway="0"/>
    <type id="highway.track" priority="1" numLanes="1" speed="5.56" allow="pedestrian motorcycle moped bicycle" oneway="0"/>
    <type id="highway.unclassified" priority="4" numLanes="1" speed="13.89" disallow="tram rail_urban rail rail_electric rail_fast ship container cable_car subway aircraft wheelchair scooter drone" oneway="0"/>

    <edge id=":119788474_0" function="internal">
        <lane id=":119788474_0_0" index="0" disallow="tram rail_urban rail rail_electric rail_fast ship container cable_car subway aircraft wheelchair scooter drone" speed="3.65" length="4.67" shape="22483.64,21266.21 22485.02,21266.64 22485.62,21267.30 22485.46,21268.18 22484.53,21269.28"/>
    </edge>
    <edge id=":119788861_0" function="internal">
        <lane id=":119788861_0_0" index="0" disallow="tram rail_urban rail rail_electric rail_fast ship container cable_car subway aircraft wheelchair scooter drone" speed="13.89" length="9.58" shape="8905.33,21078.20 8895.75,21078.12"/>
    </edge>
    <edge id=":119788861_1" function="internal">
        <lane id=":119788861_1_0" index="0" allow="pedestrian delivery bicycle" speed="6.99" length="3.28" shape="8905.33,21078.20 8902.63,21077.82 8902.16,21077.54"/>
    </edge>
    <edge id=":119788861_7" function="internal">
        <lane id=":119788861_7_0" index="0" allow="pedestrian delivery bicycle" speed="6.99" length="6.99" shape="8902.16,21077.54 8900.66,21076.63 8899.42,21074.62 8898.91,21071.79"/>
    </edge>
    <edge id=":119788861_2" function="internal">
        <lane id=":119788861_2_0" index="0" allow="pedestrian delivery bicycle" speed="5.20" length="5.25" shape="8902.11,21071.64 8902.36,21073.12 8902.98,21074.18 8903.96,21074.80 8905.30,21075.00"/>
    </edge>
    <edge id=":119788861_3" function="internal">
        <lane id=":119788861_3_0" index="0" allow="pedestrian delivery bicycle" speed="6.80" length="10.52" shape="8902.11,21071.64 8901.82,21074.54 8900.67,21076.59 8898.65,21077.78 8895.75,21078.12"/>
    </edge>
    <edge id=":119788861_4" function="internal">
        <lane id=":119788861_4_0" index="0" allow="pedestrian delivery bicycle" speed="3.65" length="4.67" shape="8902.11,21071.64 8901.36,21072.87 8900.58,21073.31 8899.76,21072.95 8898.91,21071.79"/>
    </edge>
    <edge id=":119788861_5" function="internal">
        <lane id=":119788861_5_0" index="0" allow="pedestrian delivery bicycle" speed="4.97" length="5.09" shape="8895.84,21074.92 8897.24,21074.75 8898.21,21074.18 8898.77,21073.19 8898.91,21071.79"/>
    </edge>
    <edge id=":119788861_6" function="internal">
        <lane id=":119788861_6_0" index="0" disallow="tram rail_urban rail rail_electric rail_fast ship container cable_car subway aircraft wheelchair scooter drone" speed="13.89" length="9.47" shape="8895.84,21074.92 8905.30,21075.00"/>
    </edge>
    <edge id=":119788885_0" function="internal">
        <lane id=":119788885_0_0" index="0" disallow="tram rail_urban rail rail_electric rail_fast ship container cable_car subway aircraft wheelchair scooter drone" speed="13.89" length="0.31" shape="8171.59,21064.97 8171.28,21064.96"/>
    </edge>
    <edge id=":119788885_1" function="internal">
        <lane id=":119788885_1_0" index="0" disallow="tram rail_urban rail rail_electric rail_fast ship container cable_car subway aircraft wheelchair scooter drone" speed="13.89" length="0.28" shape="8171.38,21061.77 8171.66,21061.77"/>
    </edge>
    <edge id=":119788890_0" function="internal">
        <lane id=":119788890_0_0" index="0" disallow="tram rail_urban rail rail_electric rail_fast ship container cable_car subway aircraft wheelchair scooter drone" speed="6.47" length="9.03" shape="8018.59,21060.49 8016.12,21060.77 8014.35,21061.77 8013.27,21063.50 8012.89,21065.95"/>
    </edge>
    <edge id=":119788890_1" function="internal">
        <lane id=":119788890_1_0" index="0" disallow="tram rail_urban rail rail_electric rail_fast ship container cable_car subway aircraft wheelchair scooter drone" speed="13.89" length="14.42" shape="8018.59,21060.49 8004.17,21060.15"/>
    </edge>
    <edge id=":119788890_2" function="internal">
        <lane id=":119788890_2_0" index="0" disallow="tram rail_urban rail rail_electric rail_fast ship container cable_car subway aircraft wheelchair scooter drone" speed="8.03" length="4.05" shape="8018.59,21060.49 8014.74,21059.83 8014.62,21059.75"/>
    </edge>
    <edge id=":119788890_3" function="internal">
        <lane id=":119788890_3_0" index="0" disallow="tram rail_urban rail rail_electric rail_fast ship container cable_car subway aircraft wheelchair scooter drone" speed="3.65" length="1.44" shape="8018.59,21060.49 8017.41,21059.66"/>
    </edge>
    <edge id=":119788890_16" function="internal">
        <lane id=":119788890_16_0" index="0" disallow="tram rail_urban rail rail_electric rail_fast ship container cable_car subway aircraft wheelchair scooter drone" speed="8.03" length="10.18" shape="8014.62,21059.75 8012.01,21058.10 8010.42,21055.31 8009.96,21051.46"/>
    </edge>
    <edge id=":119788890_17" function="internal">
        <lane id=":119788890_17_0" index="0" disallow="tram rail_urban rail rail_electric rail_fast ship container cable_car subway aircraft wheelchair scooter drone" speed="3.65" length="3.23" shape="8017.41,21059.66 8017.04,21058.84 8017.46,21058.06 8018.68,21057.29"/>
    </edge>
    <edge id=":119788890_4" function="internal">
        <lane id=":119788890_4_0" index="0" disallow="tram rail_urban rail rail_electric rail_fast ship container cable_car subway aircraft wheelchair scooter drone" speed="6.54" length="9.09" shape="8013.16,21051.54 8013.45,21053.99 8014.47,21055.77 8016.22,21056.87 8018.68,21057.29"/>
    </edge>
    <edge id=":119788890_5" function="internal">
        <lane id=":119788890_5_0" index="0" disallow="tram rail_urban rail rail_electric rail_fast ship container cable_car subway aircraft wheelchair scooter drone" speed="13.89" length="14.42" shape="8013.16,21051.54 8012.89,21065.95"/>
    </edge>
    <edge id=":119788890_6" function="internal">
        <lane id=":119788890_6_0" index="0" disallow="tram rail_urban rail rail_electric rail_fast ship container cable_car subway aircraft wheelchair scooter drone" speed="8.01" length="14.18" shape="8013.16,21051.54 8012.52,21055.36 8010.81,21058.08 8008.03,21059.67 8004.17,21060.15"/>
    </edge>
    <edge id=":119788890_7" function="internal">
        <lane id=":119788890_7_0" index="0" disallow="tram rail_urban rail rail_electric rail_fast ship container cable_car subway aircraft wheelchair scooter drone" speed="3.65" length="4.67" shape="8013.16,21051.54 8012.33,21052.72 8011.52,21053.10 8010.73,21052.68 8009.96,21051.46"/>
    </edge>
    <edge id=":119788890_8" function="internal">
        <lane id=":119788890_8_0" index="0" disallow="tram rail_urban rail rail_electric rail_fast ship container cable_car subway aircraft wheelchair scooter drone" speed="6.52" length="9.04" shape="8004.23,21056.95 8006.69,21056.65 8008.46,21055.63 8009.55,21053.90 8009.96,21051.46"/>
    </edge>
    <edge id=":119788890_9" function="internal">
        <lane id=":119788890_9_0" index="0" disallow="tram rail_urban rail rail_electric rail_fast ship container cable_car subway aircraft wheelchair scooter drone" speed="13.89" length="14.46" shape="8004.23,21056.95 8018.68,21057.29"/>
    </edge>
    <edge id=":119788890_10" function="internal">
        <lane id=":119788890_10_0" index="0" disallow="tram rail_urban rail rail_electric rail_fast ship container cable_car subway aircraft wheelchair scooter drone" speed="8.02" length="4.10" shape="8004.23,21056.95 8008.06,21057.57 8008.25,21057.69"/>
    </edge>
    <edge id=":119788890_11" function="internal">
        <lane id=":119788890_11_0" index="0" disallow="tram rail_urban rail rail_electric rail_fast ship container cable_car subway aircraft wheelchair scooter drone" speed="3.65" length="1.44" shape="8004.23,21056.95 8005.42,21057.77"/>
    </edge>
    <edge id=":119788890_18" function="internal">
        <lane id=":119788890_18_0" index="0" disallow="tram rail_urban rail rail_electric rail_fast ship container cable_car subway aircraft wheelchair scooter drone" speed="8.02" length="10.13" shape="8008.25,21057.69 8010.79,21059.28 8012.39,21062.07 8012.89,21065.95"/>
    </edge>
    <edge id=":119788890_19" function="internal">
        <lane id=":119788890_19_0" index="0" disallow="tram rail_urban rail rail_electric rail_fast ship container cable_car subway aircraft wheelchair scooter drone" speed="3.65" length="3.23" shape="8005.42,21057.77 8005.80,21058.58 8005.39,21059.37 8004.17,21060.15"/>
    </edge>
    <edge id=":119788890_12" function="internal">
        <lane id=":119788890_12_0" index="0" disallow="tram rail_urban rail rail_electric rail_fast ship container cable_car subway aircraft wheelchair scooter drone" speed="6.53" length="9.08" shape="8009.69,21065.90 8009.37,21063.43 8008.35,21061.64 8006.62,21060.55 8004.17,21060.15"/>
    </edge>
    <edge id=":119788890_13" function="internal">
        <lane id=":119788890_13_0" index="0" disallow="tram rail_urban rail rail_electric rail_fast ship container cable_car subway aircraft wheelchair scooter drone" speed="13.89" length="14.45" shape="8009.69,21065.90 8009.96,21051.46"/>
    </edge>
    <edge id=":119788890_14" function="internal">
        <lane id=":119788890_14_0" index="0" disallow="tram rail_urban rail rail_electric rail_fast ship container cable_car subway aircraft wheelchair scooter drone" speed="7.97" length="14.25" shape="8009.69,21065.90 8010.30,21062.04 8012.00,21059.31 8014.79,21057.73 8018.68,21057.29"/>
    </edge>
    <edge id=":119788890_15" function="internal">
        <lane id=":119788890_15_0" index="0" disallow="tram rail_urban rail rail_electric rail_fast ship container cable_car subway aircraft wheelchair scooter drone" speed="3.65" length="4.67" shape="8009.69,21065.90 8010.51,21064.72 8011.31,21064.33 8012.10,21064.74 8012.89,21065.95"/>
    </edge>
    <edge id=":119788923_0" function="internal">
        <lane id=":119788923_0_0" index="0" allow="pedestrian delivery bicycle" speed="5.28" length="5.27" shape="7245.59,21050.96 7245.35,21049.46 7244.74,21048.37 7243.78,21047.70 7242.47,21047.45"/>
    </edge>
    <edge id=":119788923_1" function="internal">
        <lane id=":119788923_1_0" index="0" allow="pedestrian delivery bicycle" speed="6.81" length="10.47" shape="7245.59,21050.96 7245.89,21048.08 7247.05,21046.04 7249.06,21044.85 7251.93,21044.50"/>
    </edge>
    <edge id=":119788923_2" function="internal">
        <lane id=":119788923_2_0" index="0" allow="pedestrian delivery bicycle" speed="3.65" length="4.67" shape="7245.59,21050.96 7246.34,21049.73 7247.13,21049.30 7247.94,21049.66 7248.79,21050.83"/>
    </edge>
    <edge id=":119788923_3" function="internal">
        <lane id=":119788923_3_0" index="0" allow="pedestrian delivery bicycle" speed="4.98" length="5.08" shape="7251.86,21047.70 7250.47,21047.87 7249.49,21048.45 7248.93,21049.44 7248.79,21050.83"/>
    </edge>
    <edge id=":119788923_4" function="internal">
        <lane id=":119788923_4_0" index="0" disallow="tram rail_urban rail rail_electric rail_fast ship container cable_car subway aircraft wheelchair scooter drone" speed="13.89" length="9.40" shape="7251.86,21047.70 7242.47,21047.45"/>
    </edge>
    <edge id=":119788923_5" function="internal">
        <lane id=":119788923_5_0" index="0" disallow="tram rail_urban rail rail_electric rail_fast ship container cable_car subway aircraft wheelchair scooter drone" speed="13.89" length="9.36" shape="7242.57,21044.25 7251.93,21044.50"/>
    </edge>
    <edge id=":119788923_6" function="internal">
        <lane id=":119788923_6_0" index="0" allow="pedestrian delivery bicycle" speed="7.04" length="3.10" shape="7242.57,21044.25 7245.20,21044.73 7245.56,21044.97"/>
    </edge>
    <edge id=":119788923_7" function="internal">
        <lane id=":119788923_7_0" index="0" allow="pedestrian delivery bicycle" speed="7.04" length="7.06" shape="7245.56,21044.97 7247.11,21045.99 7248.31,21048.02 7248.79,21050.83"/>
    </edge>
    <edge id=":119789182_0" function="internal">
        <lane id=":119789182_0_0" index="0" disallow="tram rail_urban rail rail_electric rail_fast ship container cable_car subway aircraft wheelchair scooter drone" speed="3.65" length="4.67" shape="-0.66,20916.32 -1.42,20915.09 -1.46,20914.20 -0.76,20913.64 0.66,20913.40"/>
    </edge>
    <edge id=":119799757_0" function="internal">
        <lane id=":119799757_0_0" index="0" allow="pedestrian delivery bicycle" speed="5.12" length="5.10" shape="8002.74,22002.24 8001.33,22002.45 8000.31,22003.03 7999.70,22004.00 7999.48,22005.34"/>
    </edge>
    <edge id=":119799757_1" function="internal">
        <lane id=":119799757_1_0" index="0" allow="pedestrian delivery bicycle" speed="6.84" length="10.30" shape="8002.74,22002.24 7999.93,22001.87 7997.94,22000.68 7996.77,21998.69 7996.41,21995.88"/>
    </edge>
    <edge id=":119799757_2" function="internal">
        <lane id=":119799757_2_0" index="0" allow="pedestrian delivery bicycle" speed="3.65" length="4.67" shape="8002.74,22002.24 8001.53,22001.45 8001.12,22000.66 8001.51,21999.85 8002.70,21999.04"/>
    </edge>
    <edge id=":119799757_3" function="internal">
        <lane id=":119799757_3_0" index="0" allow="pedestrian delivery bicycle" speed="5.01" length="5.03" shape="7999.61,21995.93 7999.79,21997.30 8000.36,21998.28 8001.33,21998.86 8002.70,21999.04"/>
    </edge>
    <edge id=":119799757_4" function="internal">
        <lane id=":119799757_4_0" index="0" disallow="tram rail_urban rail rail_electric rail_fast ship container cable_car subway aircraft wheelchair scooter drone" speed="13.89" length="9.41" shape="7999.61,21995.93 7999.48,22005.34"/>
    </edge>
    <edge id=":119799757_5" function="internal">
        <lane id=":119799757_5_0" index="0" disallow="tram rail_urban rail rail_electric rail_fast ship container cable_car subway aircraft wheelchair scooter drone" speed="13.89" length="9.43" shape="7996.28,22005.31 7996.41,21995.88"/>
    </edge>
    <edge id=":119799757_6" function="internal">
        <lane id=":119799757_6_0" index="0" allow="pedestrian delivery bicycle" speed="6.92" length="3.24" shape="7996.28,22005.31 7996.71,22002.59 7996.97,22002.18"/>
    </edge>
    <edge id=":119799757_7" function="internal">
        <lane id=":119799757_7_0" index="0" allow="pedestrian delivery bicycle" speed="6.92" length="6.95" shape="7996.97,22002.18 7997.92,22000.64 7999.92,21999.46 8002.70,21999.04"/>
    </edge>
    <edge id=":119799772_0" function="internal">
        <lane id=":119799772_0_0" index="0" allow="pedestrian delivery bicycle" speed="3.65" length="4.67" shape="8154.68,21993.28 8155.96,21993.95 8156.44,21994.71 8156.12,21995.54 8155.01,21996.46"/>
    </edge>
    <edge id=":119820690_0" function="internal">
        <lane id=":119820690_0_0" index="0" disallow="tram rail_urban rail rail_electric rail_fast ship container cable_car subway aircraft wheelchair scooter drone" speed="3.65" length="4.67" shape="8053.60,14905.45 8052.22,14905.02 8051.62,14904.36 8051.78,14903.48 8052.71,14902.38"/>
    </edge>
    <edge id=":119820712_0" function="internal">
        <lane id=":119820712_0_0" index="0" disallow="tram rail_urban rail rail_electric rail_fast ship container cable_car subway aircraft wheelchair scooter drone" speed="6.63" length="9.27" shape="8084.48,14796.59 8081.98,14796.93 8080.17,14798.00 8079.06,14799.78 8078.64,14802.29"/>
    </edge>
    <edge id=":119820712_1" function="internal">
        <lane id=":119820712_1_0" index="0" disallow="tram rail_urban rail rail_electric rail_fast ship container cable_car subway aircraft wheelchair scooter drone" speed="13.89" length="14.55" shape="8084.48,14796.59 8069.93,14796.59"/>
    </edge>
    <edge id=":119820712_2" function="internal">
        <lane id=":119820712_2_0" index="0" disallow="tram rail_urban rail rail_electric rail_fast ship container cable_car subway aircraft wheelchair scooter drone" speed="7.96" length="14.27" shape="8084.48,14796.59 8080.60,14796.01 8077.87,14794.32 8076.28,14791.53 8075.83,14787.64"/>
    </edge>
    <edge id=":119820712_3" function="internal">
        <lane id=":119820712_3_0" index="0" disallow="tram rail_urban rail rail_electric rail_fast ship container cable_car subway aircraft wheelchair scooter drone" speed="3.65" length="4.67" shape="8084.48,14796.59 8083.29,14795.78 8082.89,14794.98 8083.30,14794.18 8084.50,14793.39"/>
    </edge>
    <edge id=":119820712_4" function="internal">
        <lane id=":119820712_4_0" index="0" disallow="tram rail_urban rail rail_electric rail_fast ship container cable_car subway aircraft wheelchair scooter drone" speed="6.46" length="9.03" shape="8079.03,14787.72 8079.31,14790.19 8080.32,14791.96 8082.05,14793.02 8084.50,14793.39"/>
    </edge>
    <edge id=":119820712_5" function="internal">
        <lane id=":119820712_5_0" index="0" disallow="tram rail_urban rail rail_electric rail_fast ship container cable_car subway aircraft wheelchair scooter drone" speed="13.89" length="14.57" shape="8079.03,14787.72 8078.64,14802.29"/>
    </edge>
    <edge id=":119820712_6" function="internal">
        <lane id=":119820712_6_0" index="0" disallow="tram rail_urban rail rail_electric rail_fast ship container cable_car subway aircraft wheelchair scooter drone" speed="8.15" length="4.09" shape="8079.03,14787.72 8078.37,14791.58 8078.27,14791.73"/>
    </edge>
    <edge id=":119820712_7" function="internal">
        <lane id=":119820712_7_0" index="0" disallow="tram rail_urban rail rail_electric rail_fast ship container cable_car subway aircraft wheelchair scooter drone" speed="3.65" length="1.44" shape="8079.03,14787.72 8078.19,14788.90"/>
    </edge>
    <edge id=":119820712_16" function="internal">
        <lane id=":119820712_16_0" index="0" disallow="tram rail_urban rail rail_electric rail_fast ship container cable_car subway aircraft wheelchair scooter drone" speed="8.15" length="10.29" shape="8078.27,14791.73 8076.63,14794.35 8073.82,14796.02 8069.93,14796.59"/>
    </edge>
    <edge id=":119820712_17" function="internal">
        <lane id=":119820712_17_0" index="0" disallow="tram rail_urban rail rail_electric rail_fast ship container cable_car subway aircraft wheelchair scooter drone" speed="3.65" length="3.23" shape="8078.19,14788.90 8077.38,14789.28 8076.59,14788.86 8075.83,14787.64"/>
    </edge>
    <edge id=":119820712_8" function="internal">
        <lane id=":119820712_8_0" index="0" disallow="tram rail_urban rail rail_electric rail_fast ship container cable_car subway aircraft wheelchair scooter drone" speed="6.69" length="9.34" shape="8069.91,14793.39 8072.44,14793.02 8074.27,14791.93 8075.40,14790.14 8075.83,14787.64"/>
    </edge>
    <edge id=":119820712_9" function="internal">
        <lane id=":119820712_9_0" index="0" disallow="tram rail_urban rail rail_electric rail_fast ship container cable_car subway aircraft wheelchair scooter drone" speed="13.89" length="14.59" shape="8069.91,14793.39 8084.50,14793.39"/>
    </edge>
    <edge id=":119820712_10" function="internal">
        <lane id=":119820712_10_0" index="0" disallow="tram rail_urban rail rail_electric rail_fast ship container cable_car subway aircraft wheelchair scooter drone" speed="7.94" length="14.32" shape="8069.91,14793.39 8073.82,14793.93 8076.57,14795.59 8078.18,14798.37 8078.64,14802.29"/>
    </edge>
    <edge id=":119820712_11" function="internal">
        <lane id=":119820712_11_0" index="0" disallow="tram rail_urban rail rail_electric rail_fast ship container cable_car subway aircraft wheelchair scooter drone" speed="3.65" length="4.67" shape="8069.91,14793.39 8071.12,14794.18 8071.52,14794.98 8071.13,14795.78 8069.93,14796.59"/>
    </edge>
    <edge id=":119820712_12" function="internal">
        <lane id=":119820712_12_0" index="0" disallow="tram rail_urban rail rail_electric rail_fast ship container cable_car subway aircraft wheelchair scooter drone" speed="6.44" length="9.03" shape="8075.44,14802.21 8075.15,14799.74 8074.13,14797.98 8072.40,14796.93 8069.93,14796.59"/>
    </edge>
    <edge id=":119820712_13" function="internal">
        <lane id=":119820712_13_0" index="0" disallow="tram rail_urban rail rail_electric rail_fast ship container cable_car subway aircraft wheelchair scooter drone" speed="13.89" length="14.58" shape="8075.44,14802.21 8075.83,14787.64"/>
    </edge>
    <edge id=":119820712_14" function="internal">
        <lane id=":119820712_14_0" index="0" disallow="tram rail_urban rail rail_electric rail_fast ship container cable_car subway aircraft wheelchair scooter drone" speed="8.10" length="4.12" shape="8075.44,14802.21 8076.09,14798.33 8076.19,14798.17"/>
    </edge>
    <edge id=":119820712_15" function="internal">
        <lane id=":119820712_15_0" index="0" disallow="tram rail_urban rail rail_electric rail_fast ship container cable_car subway aircraft wheelchair scooter drone" speed="3.65" length="1.44" shape="8075.44,14802.21 8076.27,14801.03"/>
    </edge>
    <edge id=":119820712_18" function="internal">
        <lane id=":119820712_18_0" index="0" disallow="tram rail_urban rail rail_electric rail_fast ship container cable_car subway aircraft wheelchair scooter drone" speed="8.10" length="10.24" shape="8076.19,14798.17 8077.82,14795.57 8080.62,14793.92 8084.50,14793.39"/>
    </edge>
    <edge id=":119820712_19" function="internal">
        <lane id=":119820712_19_0" index="0" disallow="tram rail_urban rail rail_electric rail_fast ship container cable_car subway aircraft wheelchair scooter drone" speed="3.65" length="3.23" shape="8076.27,14801.03 8077.08,14800.65 8077.87,14801.07 8078.64,14802.29"/>
    </edge>
    <edge id=":119820734_0" function="internal">
        <lane id=":119820734_0_0" index="0" disallow="tram rail_urban rail rail_electric rail_fast ship container cable_car subway aircraft wheelchair scooter drone" speed="3.65" length="4.67" shape="7985.19,14694.03 7984.01,14693.21 7983.62,14692.40 7984.04,14691.61 7985.26,14690.83"/>
    </edge>
    <edge id=":119820767_0" function="internal">
        <lane id=":119820767_0_0" index="0" disallow="tram rail_urban rail rail_electric rail_fast ship container cable_car subway aircraft wheelchair scooter drone" speed="3.65" length="4.67" shape="8091.07,14554.29 8091.96,14553.15 8092.79,14552.81 8093.55,14553.27 8094.26,14554.53"/>
    </edge>
    <edge id=":119820822_0" function="internal">
        <lane id=":119820822_0_0" index="0" disallow="tram rail_urban rail rail_electric rail_fast ship container cable_car subway aircraft wheelchair scooter drone" speed="13.89" length="14.52" shape="8133.44,14787.97 8133.62,14802.49"/>
    </edge>
    <edge id=":119820822_1" function="internal">
        <lane id=":119820822_1_0" index="0" disallow="tram rail_urban rail rail_electric rail_fast ship container cable_car subway aircraft wheelchair scooter drone" speed="7.95" length="4.19" shape="8133.44,14787.97 8132.98,14791.88 8132.85,14792.10"/>
    </edge>
    <edge id=":119820822_2" function="internal">
        <lane id=":119820822_2_0" index="0" disallow="tram rail_urban rail rail_electric rail_fast ship container cable_car subway aircraft wheelchair scooter drone" speed="3.65" length="1.44" shape="8133.44,14787.97 8132.67,14789.19"/>
    </edge>
    <edge id=":119820822_9" function="internal">
        <lane id=":119820822_9_0" index="0" disallow="tram rail_urban rail rail_electric rail_fast ship container cable_car subway aircraft wheelchair scooter drone" speed="7.95" length="10.13" shape="8132.85,14792.10 8131.37,14794.67 8128.61,14796.33 8124.71,14796.86"/>
    </edge>
    <edge id=":119820822_10" function="internal">
        <lane id=":119820822_10_0" index="0" disallow="tram rail_urban rail rail_electric rail_fast ship container cable_car subway aircraft wheelchair scooter drone" speed="3.65" length="3.23" shape="8132.67,14789.19 8131.88,14789.61 8131.07,14789.23 8130.24,14788.05"/>
    </edge>
    <edge id=":119820822_3" function="internal">
        <lane id=":119820822_3_0" index="0" disallow="tram rail_urban rail rail_electric rail_fast ship container cable_car subway aircraft wheelchair scooter drone" speed="6.44" length="9.03" shape="8124.73,14793.66 8127.19,14793.32 8128.93,14792.28 8129.95,14790.52 8130.24,14788.05"/>
    </edge>
    <edge id=":119820822_4" function="internal">
        <lane id=":119820822_4_0" index="0" disallow="tram rail_urban rail rail_electric rail_fast ship container cable_car subway aircraft wheelchair scooter drone" speed="8.04" length="14.27" shape="8124.73,14793.66 8128.62,14794.24 8131.40,14795.90 8133.06,14798.65 8133.62,14802.49"/>
    </edge>
    <edge id=":119820822_5" function="internal">
        <lane id=":119820822_5_0" index="0" disallow="tram rail_urban rail rail_electric rail_fast ship container cable_car subway aircraft wheelchair scooter drone" speed="3.65" length="4.67" shape="8124.73,14793.66 8125.92,14794.47 8126.32,14795.27 8125.91,14796.07 8124.71,14796.86"/>
    </edge>
    <edge id=":119820822_6" function="internal">
        <lane id=":119820822_6_0" index="0" disallow="tram rail_urban rail rail_electric rail_fast ship container cable_car subway aircraft wheelchair scooter drone" speed="6.55" length="9.13" shape="8130.42,14802.49 8130.06,14800.04 8128.99,14798.29 8127.21,14797.23 8124.71,14796.86"/>
    </edge>
    <edge id=":119820822_7" function="internal">
        <lane id=":119820822_7_0" index="0" disallow="tram rail_urban rail rail_electric rail_fast ship container cable_car subway aircraft wheelchair scooter drone" speed="13.89" length="14.44" shape="8130.42,14802.49 8130.24,14788.05"/>
    </edge>
    <edge id=":119820822_8" function="internal">
        <lane id=":119820822_8_0" index="0" disallow="tram rail_urban rail rail_electric rail_fast ship container cable_car subway aircraft wheelchair scooter drone" speed="3.65" length="1.44" shape="8130.42,14802.49 8131.22,14801.29"/>
    </edge>
    <edge id=":119820822_11" function="internal">
        <lane id=":119820822_11_0" index="0" disallow="tram rail_urban rail rail_electric rail_fast ship container cable_car subway aircraft wheelchair scooter drone" speed="3.65" length="3.23" shape="8131.22,14801.29 8132.02,14800.89 8132.82,14801.29 8133.62,14802.49"/>
    </edge>
    <edge id=":119830530_0" function="internal">
        <lane id=":119830530_0_0" index="0" allow="pedestrian delivery bicycle" speed="5.09" length="5.07" shape="8881.88,17819.30 8880.53,17819.47 8879.54,17820.05 8878.93,17821.03 8878.69,17822.41"/>
    </edge>
    <edge id=":119830530_1" function="internal">
        <lane id=":119830530_1_0" index="0" disallow="tram rail_urban rail rail_electric rail_fast ship container cable_car subway aircraft wheelchair scooter drone" speed="22.22" length="9.41" shape="8881.88,17819.30 8872.47,17819.13"/>
    </edge>
    <edge id=":119830530_2" function="internal">
        <lane id=":119830530_2_0" index="0" disallow="tram rail_urban rail rail_electric rail_fast ship container cable_car subway aircraft wheelchair scooter drone" speed="22.22" length="9.44" shape="8872.52,17815.93 8881.95,17816.10"/>
    </edge>
    <edge id=":119830530_3" function="internal">
        <lane id=":119830530_3_0" index="0" allow="pedestrian delivery bicycle" speed="6.85" length="3.30" shape="8872.52,17815.93 8875.30,17816.37 8875.71,17816.63"/>
    </edge>
    <edge id=":119830530_7" function="internal">
        <lane id=":119830530_7_0" index="0" allow="pedestrian delivery bicycle" speed="6.85" length="6.95" shape="8875.71,17816.63 8877.26,17817.60 8878.39,17819.61 8878.69,17822.41"/>
    </edge>
    <edge id=":119830530_4" function="internal">
        <lane id=":119830530_4_0" index="0" allow="pedestrian delivery bicycle" speed="5.02" length="5.02" shape="8875.49,17822.30 8875.34,17820.93 8874.79,17819.94 8873.83,17819.34 8872.47,17819.13"/>
    </edge>
    <edge id=":119830530_5" function="internal">
        <lane id=":119830530_5_0" index="0" allow="pedestrian delivery bicycle" speed="6.90" length="10.18" shape="8875.49,17822.30 8875.98,17819.54 8877.22,17817.58 8879.21,17816.44 8881.95,17816.10"/>
    </edge>
    <edge id=":119830530_6" function="internal">