<?xml version="1.0" encoding="UTF-8"?>

<!-- generated on 2025-11-15 19:53:59 by Eclipse SUMO netconvert Version 1.24.0
<netconvertConfiguration xmlns:xsi="http://www.w3.org/2001/XMLSchema-instance" xsi:noNamespaceSchemaLocation="http://sumo.dlr.de/xsd/netconvertConfiguration.xsd">

    <input>
        <osm-files value="paris-oldtown.osm"/>
    </input>

    <output>
        <output-file value="all_maps/paris-oldtown.net.xml"/>
    </output>

    <projection>
        <proj.utm value="true"/>
        <proj.plain-geo value="true"/>
    </projection>

</netconvertConfiguration>
-->

<net version="1.20" junctionCornerDetail="5" limitTurnSpeed="5.50" xmlns:xsi="http://www.w3.org/2001/XMLSchema-instance" xsi:noNamespaceSchemaLocation="http://sumo.dlr.de/xsd/net_file.xsd">

    <location netOffset="-451676.21,-5411291.25" convBoundary="0.00,0.00,690.60,495.07" origBoundary="2.341206,48.852729,2.350631,48.857192" projParameter="+proj=utm +zone=31 +ellps=WGS84 +datum=WGS84 +units=m +no_defs"/>

    <type id="highway.cycleway" priority="1" numLanes="1" speed="5.56" allow="bicycle" oneway="0" width="2.00"/>
    <type id="highway.footway" priority="1" numLanes="1" speed="2.78" allow="pedestrian" oneway="1" width="2.00"/>
    <type id="highway.pedestrian" priority="1" numLanes="1" speed="2.78" allow="pedestrian" oneway="1" width="2.00"/>
    <type id="highway.primary" priority="12" numLanes="2" speed="27.78" disallow="tram rail_urban rail rail_electric rail_fast ship container cable_car subway aircraft wheelchair scooter drone" oneway="0"/>
    <type id="highway.residential" priority="3" numLanes="1" speed="13.89" disallow="tram rail_urban rail rail_electric rail_fast ship container cable_car subway aircraft wheelchair scooter drone" oneway="0"/>
    <type id="highway.secondary" priority="11" numLanes="1" speed="27.78" disallow="tram rail_urban rail rail_electric rail_fast ship container cable_car subway aircraft wheelchair scooter drone" oneway="0"/>
    <type id="highway.service" priority="1" numLanes="1" speed="5.56" allow="pedestrian delivery bicycle" oneway="0"/>
    <type id="highway.steps" priority="1" numLanes="1" speed="1.39" allow="pedestrian" oneway="1" width="2.00"/>

    <edge id=":10737951391_0" function="internal">
        <lane id=":10737951391_0_0" index="0" allow="pedestrian delivery bicycle" speed="5.56" length="3.18" shape="452.47,159.84 449.47,160.91"/>
    </edge>
    <edge id=":10737951391_1" function="internal">
        <lane id=":10737951391_1_0" index="0" allow="pedestrian delivery bicycle" speed="3.65" length="1.44" shape="452.47,159.84 451.07,159.49"/>
    </edge>
    <edge id=":10737951391_4" function="internal">
        <lane id=":10737951391_4_0" index="0" allow="pedestrian delivery bicycle" speed="3.65" length="3.23" shape="451.07,159.49 450.43,158.87 450.53,157.98 451.40,156.83"/>
    </edge>
    <edge id=":10737951391_2" function="internal">
        <lane id=":10737951391_2_0" index="0" allow="pedestrian delivery bicycle" speed="5.56" length="3.18" shape="448.40,157.89 451.40,156.83"/>
    </edge>
    <edge id=":10737951391_3" function="internal">
        <lane id=":10737951391_3_0" index="0" allow="pedestrian delivery bicycle" speed="3.65" length="1.44" shape="448.40,157.89 449.80,158.24"/>
    </edge>
    <edge id=":10737951391_5" function="internal">
        <lane id=":10737951391_5_0" index="0" allow="pedestrian delivery bicycle" speed="3.65" length="3.23" shape="449.80,158.24 450.44,158.87 450.33,159.75 449.47,160.91"/>
    </edge>
    <edge id=":11033269477_0" function="internal">
        <lane id=":11033269477_0_0" index="0" allow="bus bicycle" speed="8.33" length="0.30" shape="384.95,396.07 384.83,395.79"/>
    </edge>
    <edge id=":11033269490_0" function="internal">
        <lane id=":11033269490_0_0" index="0" allow="bus bicycle" speed="6.72" length="2.76" shape="396.14,390.29 396.56,390.79 396.44,391.36 396.20,392.04 396.28,392.85"/>
    </edge>
    <edge id=":11033269491_0" function="internal">
        <lane id=":11033269491_0_0" index="0" allow="bus bicycle" speed="8.33" length="0.94" shape="384.35,394.64 383.84,395.43"/>
    </edge>
    <edge id=":11033308486_0" function="internal">
        <lane id=":11033308486_0_0" index="0" allow="bicycle" speed="5.56" length="0.10" width="2.00" shape="427.53,488.43 427.50,488.37"/>
    </edge>
    <edge id=":11033308486_1" function="internal">
        <lane id=":11033308486_1_0" index="0" allow="bicycle" speed="5.56" length="0.10" width="2.00" shape="429.35,487.59 429.32,487.53"/>
    </edge>
    <edge id=":11033308487_0" function="internal">
        <lane id=":11033308487_0_0" index="0" allow="bus bicycle" speed="8.33" length="0.30" shape="435.18,485.25 435.30,485.53"/>
    </edge>
    <edge id=":11066794442_0" function="internal">
        <lane id=":11066794442_0_0" index="0" allow="bus bicycle" speed="8.33" length="3.64" shape="383.89,395.23 384.75,391.69"/>
    </edge>
    <edge id=":11066794443_0" function="internal">
        <lane id=":11066794443_0_0" index="0" allow="bus bicycle" speed="8.33" length="4.96" width="5.00" shape="391.64,387.75 395.96,390.20"/>
    </edge>
    <edge id=":11070910851_0" function="internal">
        <lane id=":11070910851_0_0" index="0" allow="bicycle" speed="5.56" length="0.10" width="1.50" shape="225.85,130.85 225.89,130.90"/>
    </edge>
    <edge id=":11070910851_1" function="internal">
        <lane id=":11070910851_1_0" index="0" allow="bicycle" speed="5.56" length="0.10" width="1.50" shape="227.02,129.91 227.06,129.96"/>
    </edge>
    <edge id=":11070910852_0" function="internal">
        <lane id=":11070910852_0_0" index="0" allow="bicycle" speed="5.56" length="5.03" width="1.50" shape="259.78,177.81 257.05,173.59"/>
    </edge>
    <edge id=":11070910852_1" function="internal">
        <lane id=":11070910852_1_0" index="0" allow="bicycle" speed="2.89" length="1.17" width="2.00" shape="259.78,177.81 259.75,176.91 259.88,176.67"/>
    </edge>
    <edge id=":11070910852_4" function="internal">
        <lane id=":11070910852_4_0" index="0" allow="bicycle" speed="2.89" length="1.75" width="2.00" shape="259.88,176.67 260.01,176.41 260.57,176.33 261.41,176.65"/>
    </edge>
    <edge id=":11070910852_2" function="internal">
        <lane id=":11070910852_2_0" index="0" allow="bicycle" speed="5.56" length="5.05" width="1.50" shape="258.26,172.70 261.41,176.65"/>
    </edge>
    <edge id=":11070910852_3" function="internal">
        <lane id=":11070910852_3_0" index="0" allow="bicycle" speed="2.50" length="1.10" width="1.50" shape="258.26,172.70 258.29,173.38 258.09,173.75"/>
    </edge>
    <edge id=":11070910852_5" function="internal">
        <lane id=":11070910852_5_0" index="0" allow="bicycle" speed="2.50" length="1.10" width="1.50" shape="258.09,173.75 257.68,173.82 257.05,173.59"/>
    </edge>
    <edge id=":11070910853_0" function="internal">
        <lane id=":11070910853_0_0" index="0" allow="bicycle" speed="5.56" length="6.20" width="2.00" shape="265.30,185.60 261.71,180.54"/>
    </edge>
    <edge id=":11070910853_1" function="internal">
        <lane id=":11070910853_1_0" index="0" allow="bicycle" speed="4.83" length="5.18" width="2.00" shape="265.30,185.60 264.44,184.11 264.14,182.86 264.40,181.85 265.22,181.07"/>
    </edge>
    <edge id=":11070910853_2" function="internal">
        <lane id=":11070910853_2_0" index="0" allow="bicycle" speed="2.89" length="2.92" width="2.00" shape="265.30,185.60 265.27,184.70 265.54,184.21 266.09,184.12 266.93,184.45"/>
    </edge>
    <edge id=":11070910853_3" function="internal">
        <lane id=":11070910853_3_0" index="0" allow="bicycle" speed="3.90" length="2.79" width="2.00" shape="263.34,179.38 263.76,180.06 264.18,180.72 264.65,181.14 265.22,181.07"/>
    </edge>
    <edge id=":11070910853_4" function="internal">
        <lane id=":11070910853_4_0" index="0" allow="bicycle" speed="5.56" length="6.21" width="2.00" shape="263.34,179.38 266.93,184.45"/>
    </edge>
    <edge id=":11070910853_5" function="internal">
        <lane id=":11070910853_5_0" index="0" allow="bicycle" speed="2.89" length="2.92" width="2.00" shape="263.34,179.38 263.37,180.28 263.11,180.77 262.55,180.86 261.71,180.54"/>
    </edge>
    <edge id=":11070910853_6" function="internal">
        <lane id=":11070910853_6_0" index="0" allow="bicycle" speed="4.51" length="4.54" width="2.00" shape="261.36,184.46 262.20,183.70 262.53,182.80 262.37,181.74 261.71,180.54"/>
    </edge>
    <edge id=":11070910853_7" function="internal">
        <lane id=":11070910853_7_0" index="0" allow="bus bicycle" speed="8.33" length="5.06" shape="261.23,184.25 265.53,181.59"/>
    </edge>
    <edge id=":11070910853_8" function="internal">
        <lane id=":11070910853_8_0" index="0" allow="bicycle" speed="5.55" length="6.56" width="2.00" shape="261.10,184.04 262.90,183.16 264.48,182.93 265.82,183.36 266.93,184.45"/>
    </edge>
    <edge id=":11070910854_0" function="internal">
        <lane id=":11070910854_0_0" index="0" allow="bicycle" speed="5.56" length="5.24" width="2.00" shape="271.42,194.26 268.40,189.99"/>
    </edge>
    <edge id=":11070910854_1" function="internal">
        <lane id=":11070910854_1_0" index="0" allow="bicycle" speed="2.89" length="1.27" width="2.00" shape="271.42,194.26 271.40,193.36 271.57,193.04"/>
    </edge>
    <edge id=":11070910854_4" function="internal">
        <lane id=":11070910854_4_0" index="0" allow="bicycle" speed="2.89" length="1.65" width="2.00" shape="271.57,193.04 271.66,192.87 272.21,192.79 273.05,193.11"/>
    </edge>
    <edge id=":11070910854_2" function="internal">
        <lane id=":11070910854_2_0" index="0" allow="bicycle" speed="5.56" length="5.24" width="2.00" shape="270.03,188.83 273.05,193.11"/>
    </edge>
    <edge id=":11070910854_3" function="internal">
        <lane id=":11070910854_3_0" index="0" allow="bicycle" speed="2.89" length="1.27" width="2.00" shape="270.03,188.83 270.05,189.73 269.88,190.06"/>
    </edge>
    <edge id=":11070910854_5" function="internal">
        <lane id=":11070910854_5_0" index="0" allow="bicycle" speed="2.89" length="1.65" width="2.00" shape="269.88,190.06 269.79,190.23 269.24,190.31 268.40,189.99"/>
    </edge>
    <edge id=":11070910857_0" function="internal">
        <lane id=":11070910857_0_0" index="0" allow="bicycle" speed="5.56" length="6.91" width="1.00" shape="338.81,294.70 337.79,292.93 336.97,291.78 336.14,290.65 335.06,288.91"/>
    </edge>
    <edge id=":11070910857_1" function="internal">
        <lane id=":11070910857_1_0" index="0" allow="bicycle" speed="4.95" length="5.62" width="1.00" shape="338.81,294.70 338.01,292.88 337.74,291.43 338.00,290.35 338.78,289.65"/>
    </edge>
    <edge id=":11070910857_2" function="internal">
        <lane id=":11070910857_2_0" index="0" allow="bicycle" speed="2.04" length="1.46" width="1.00" shape="338.81,294.70 338.86,294.25 339.02,294.02 339.30,294.02 339.69,294.23"/>
    </edge>
    <edge id=":11070910857_3" function="internal">
        <lane id=":11070910857_3_0" index="0" allow="bicycle" speed="3.94" length="3.10" width="1.00" shape="339.67,291.44 339.24,291.83 339.10,292.42 339.25,293.22 339.69,294.23"/>
    </edge>
    <edge id=":11070910857_4" function="internal">
        <lane id=":11070910857_4_0" index="0" allow="bicycle" speed="5.34" length="5.85" width="2.00" shape="339.67,291.44 338.46,291.74 337.28,291.42 336.15,290.47 335.06,288.91"/>
    </edge>
    <edge id=":11070910857_5" function="internal">
        <lane id=":11070910857_5_0" index="0" allow="bicycle" speed="2.89" length="2.92" width="2.00" shape="339.67,291.44 338.77,291.33 338.33,290.99 338.33,290.43 338.78,289.65"/>
    </edge>
    <edge id=":11070910857_6" function="internal">
        <lane id=":11070910857_6_0" index="0" allow="bicycle" speed="3.94" length="2.89" width="2.00" shape="336.80,287.91 337.19,288.61 337.64,289.27 338.16,289.69 338.78,289.65"/>
    </edge>
    <edge id=":11070910857_7" function="internal">
        <lane id=":11070910857_7_0" index="0" allow="bicycle" speed="5.56" length="6.96" width="1.00" shape="336.80,287.91 337.75,289.74 338.28,291.05 338.80,292.37 339.69,294.23"/>
    </edge>
    <edge id=":11070910857_8" function="internal">
        <lane id=":11070910857_8_0" index="0" allow="bicycle" speed="2.89" length="2.92" width="2.00" shape="336.80,287.91 336.74,288.81 336.43,289.28 335.87,289.31 335.06,288.91"/>
    </edge>
    <edge id=":11070910859_0" function="internal">
        <lane id=":11070910859_0_0" index="0" allow="bicycle" speed="5.56" length="4.50" width="1.00" shape="379.86,379.21 378.92,378.27 378.37,377.54 377.95,376.71 377.41,375.49"/>
    </edge>
    <edge id=":11070910859_1" function="internal">
        <lane id=":11070910859_1_0" index="0" allow="bicycle" speed="2.04" length="0.73" width="1.00" shape="379.86,379.21 379.76,378.77 379.84,378.50"/>
    </edge>
    <edge id=":11070910859_4" function="internal">
        <lane id=":11070910859_4_0" index="0" allow="bicycle" speed="2.04" length="0.73" width="1.00" shape="379.84,378.50 380.10,378.41 380.55,378.49"/>
    </edge>
    <edge id=":11070910859_2" function="internal">
        <lane id=":11070910859_2_0" index="0" allow="bicycle" speed="5.56" length="4.11" width="1.00" shape="378.33,375.08 378.82,376.20 379.20,376.95 379.70,377.62 380.55,378.49"/>
    </edge>
    <edge id=":11070910859_3" function="internal">
        <lane id=":11070910859_3_0" index="0" allow="bicycle" speed="2.04" length="0.73" width="1.00" shape="378.33,375.08 378.25,375.53 378.07,375.74"/>
    </edge>
    <edge id=":11070910859_5" function="internal">
        <lane id=":11070910859_5_0" index="0" allow="bicycle" speed="2.04" length="0.73" width="1.00" shape="378.07,375.74 377.79,375.73 377.41,375.49"/>
    </edge>
    <edge id=":11073202325_0" function="internal">
        <lane id=":11073202325_0_0" index="0" allow="pedestrian delivery bicycle" speed="8.33" length="4.87" shape="357.09,285.19 352.78,287.46"/>
    </edge>
    <edge id=":11073202326_0" function="internal">
        <lane id=":11073202326_0_0" index="0" allow="pedestrian delivery bicycle" speed="5.56" length="5.30" shape="360.36,300.10 365.07,297.67"/>
    </edge>
    <edge id=":11166377856_0" function="internal">
        <lane id=":11166377856_0_0" index="0" allow="bicycle" speed="5.56" length="5.15" width="2.00" shape="334.10,287.23 331.66,282.69"/>
    </edge>
    <edge id=":11166377856_1" function="internal">
        <lane id=":11166377856_1_0" index="0" allow="bicycle" speed="2.89" length="1.31" width="2.00" shape="334.10,287.23 334.16,286.33 334.39,285.98"/>
    </edge>
    <edge id=":11166377856_4" function="internal">
        <lane id=":11166377856_4_0" index="0" allow="bicycle" speed="2.89" length="1.61" width="2.00" shape="334.39,285.98 334.47,285.86 335.03,285.83 335.84,286.23"/>
    </edge>
    <edge id=":11166377856_2" function="internal">
        <lane id=":11166377856_2_0" index="0" allow="bicycle" speed="5.56" length="5.05" width="2.00" shape="333.44,281.79 335.84,286.23"/>
    </edge>
    <edge id=":11166377856_3" function="internal">
        <lane id=":11166377856_3_0" index="0" allow="bicycle" speed="2.89" length="1.23" width="2.00" shape="333.44,281.79 333.33,282.68 333.14,282.95"/>
    </edge>
    <edge id=":11166377856_5" function="internal">
        <lane id=":11166377856_5_0" index="0" allow="bicycle" speed="2.89" length="1.69" width="2.00" shape="333.14,282.95 333.00,283.13 332.44,283.14 331.66,282.69"/>
    </edge>
    <edge id=":11166377857_0" function="internal">
        <lane id=":11166377857_0_0" index="0" allow="bicycle" speed="5.56" length="5.01" width="1.00" shape="352.42,320.65 350.14,316.18"/>
    </edge>
    <edge id=":11166377857_1" function="internal">
        <lane id=":11166377857_1_0" index="0" allow="bicycle" speed="2.04" length="0.73" width="1.00" shape="352.42,320.65 352.47,320.20 352.64,319.98"/>
    </edge>
    <edge id=":11166377857_4" function="internal">
        <lane id=":11166377857_4_0" index="0" allow="bicycle" speed="2.04" length="0.73" width="1.00" shape="352.64,319.98 352.92,319.98 353.31,320.20"/>
    </edge>
    <edge id=":11166377857_2" function="internal">
        <lane id=":11166377857_2_0" index="0" allow="bicycle" speed="5.56" length="5.04" width="1.00" shape="351.02,315.71 353.31,320.20"/>
    </edge>
    <edge id=":11166377857_3" function="internal">
        <lane id=":11166377857_3_0" index="0" allow="bicycle" speed="2.04" length="0.73" width="1.00" shape="351.02,315.71 350.98,316.16 350.81,316.39"/>
    </edge>
    <edge id=":11166377857_5" function="internal">
        <lane id=":11166377857_5_0" index="0" allow="bicycle" speed="2.04" length="0.73" width="1.00" shape="350.81,316.39 350.53,316.40 350.14,316.18"/>
    </edge>
    <edge id=":11169425687_0" function="internal">
        <lane id=":11169425687_0_0" index="0" allow="bicycle" speed="2.50" length="2.19" width="1.50" shape="225.01,129.90 224.92,129.23 225.08,128.84 225.48,128.73 226.13,128.91"/>
    </edge>
    <edge id=":11300283537_0" function="internal">
        <lane id=":11300283537_0_0" index="0" allow="emergency authority pedestrian delivery bicycle" speed="8.33" length="0.30" shape="441.30,474.47 441.02,474.59"/>
    </edge>
    <edge id=":11300283537_1" function="internal">
        <lane id=":11300283537_1_0" index="0" allow="emergency authority pedestrian delivery bicycle" speed="8.33" length="0.30" shape="439.77,471.64 440.05,471.53"/>
    </edge>
    <edge id=":11953669258_0" function="internal">
        <lane id=":11953669258_0_0" index="0" allow="pedestrian delivery bicycle" speed="3.65" length="4.67" shape="409.06,144.58 409.35,143.16 409.94,142.49 410.84,142.56 412.03,143.37"/>
    </edge>
    <edge id=":11953669265_0" function="internal">
        <lane id=":11953669265_0_0" index="0" allow="pedestrian delivery bicycle" speed="5.56" length="5.30" shape="433.57,200.16 433.36,201.53 432.82,202.68 431.97,203.62 430.79,204.34"/>
    </edge>
    <edge id=":11953669265_1" function="internal">
        <lane id=":11953669265_1_0" index="0" allow="pedestrian delivery bicycle" speed="4.00" length="1.77" shape="429.44,201.44 429.84,201.20 430.12,200.89 430.30,200.50 430.37,200.05"/>
    </edge>
    <edge id=":11953680769_0" function="internal">
        <lane id=":11953680769_0_0" index="0" allow="pedestrian delivery bicycle" speed="5.56" length="6.58" shape="394.04,203.10 393.93,201.18 393.61,199.87 392.95,198.68 391.81,197.10"/>
    </edge>
    <edge id=":11953680769_1" function="internal">
        <lane id=":11953680769_1_0" index="0" allow="pedestrian delivery bicycle" speed="5.56" length="8.73" shape="394.04,203.10 394.30,200.96 395.14,199.11 396.58,197.54 398.62,196.25"/>
    </edge>
    <edge id=":11953680769_2" function="internal">
        <lane id=":11953680769_2_0" index="0" allow="pedestrian delivery bicycle" speed="3.65" length="4.67" shape="394.04,203.10 394.82,201.88 395.61,201.47 396.42,201.85 397.24,203.03"/>
    </edge>
    <edge id=":11953680769_3" function="internal">
        <lane id=":11953680769_3_0" index="0" allow="pedestrian delivery bicycle" speed="5.56" length="5.09" shape="400.03,199.12 398.79,199.89 397.92,200.80 397.40,201.85 397.24,203.03"/>
    </edge>
    <edge id=":11953680769_4" function="internal">
        <lane id=":11953680769_4_0" index="0" allow="pedestrian delivery bicycle" speed="5.56" length="9.33" shape="400.03,199.12 397.66,199.91 395.50,199.84 393.55,198.90 391.81,197.10"/>
    </edge>
    <edge id=":11953680769_5" function="internal">
        <lane id=":11953680769_5_0" index="0" allow="pedestrian delivery bicycle" speed="3.65" length="4.67" shape="400.03,199.12 398.60,198.93 397.89,198.39 397.90,197.49 398.62,196.25"/>
    </edge>
    <edge id=":11953680769_6" function="internal">
        <lane id=":11953680769_6_0" index="0" allow="pedestrian delivery bicycle" speed="5.26" length="4.80" shape="394.39,195.21 395.28,196.14 396.29,196.62 397.40,196.65 398.62,196.25"/>
    </edge>
    <edge id=":11953680769_7" function="internal">
        <lane id=":11953680769_7_0" index="0" allow="pedestrian delivery bicycle" speed="5.56" length="8.56" shape="394.39,195.21 395.86,197.26 396.71,198.82 397.11,200.53 397.24,203.03"/>
    </edge>
    <edge id=":11953680769_8" function="internal">
        <lane id=":11953680769_8_0" index="0" allow="pedestrian delivery bicycle" speed="3.65" length="4.67" shape="394.39,195.21 394.45,196.65 394.04,197.45 393.16,197.60 391.81,197.10"/>
    </edge>
    <edge id=":11953680771_0" function="internal">
        <lane id=":11953680771_0_0" index="0" allow="pedestrian delivery bicycle" speed="5.56" length="4.49" shape="389.67,191.12 389.52,189.96 389.08,188.98 388.37,188.17 387.38,187.55"/>
    </edge>
    <edge id=":11953680771_1" function="internal">
        <lane id=":11953680771_1_0" index="0" allow="pedestrian delivery bicycle" speed="5.56" length="8.01" shape="389.67,191.12 389.89,189.03 390.60,187.24 391.81,185.75 393.50,184.56"/>
    </edge>
    <edge id=":11953680771_2" function="internal">
        <lane id=":11953680771_2_0" index="0" allow="pedestrian delivery bicycle" speed="3.65" length="4.67" shape="389.67,191.12 390.46,189.92 391.25,189.51 392.06,189.90 392.87,191.10"/>
    </edge>
    <edge id=":11953680771_3" function="internal">
        <lane id=":11953680771_3_0" index="0" allow="pedestrian delivery bicycle" speed="5.56" length="4.53" shape="395.01,187.38 394.07,188.05 393.39,188.89 392.99,189.91 392.87,191.10"/>
    </edge>
    <edge id=":11953680771_4" function="internal">
        <lane id=":11953680771_4_0" index="0" allow="pedestrian delivery bicycle" speed="5.56" length="7.93" shape="395.01,187.38 393.14,188.14 391.24,188.43 389.32,188.23 387.38,187.55"/>
    </edge>
    <edge id=":11953680771_5" function="internal">
        <lane id=":11953680771_5_0" index="0" allow="pedestrian delivery bicycle" speed="3.65" length="4.67" shape="395.01,187.38 393.58,187.24 392.85,186.73 392.82,185.83 393.50,184.56"/>
    </edge>
    <edge id=":11953680771_6" function="internal">
        <lane id=":11953680771_6_0" index="0" allow="pedestrian delivery bicycle" speed="5.56" length="4.94" shape="388.74,184.65 389.95,185.08 391.15,185.21 392.33,185.03 393.50,184.56"/>
    </edge>
    <edge id=":11953680771_7" function="internal">
        <lane id=":11953680771_7_0" index="0" allow="pedestrian delivery bicycle" speed="5.56" length="8.10" shape="388.74,184.65 390.53,185.78 391.81,187.23 392.59,189.00 392.87,191.10"/>
    </edge>
    <edge id=":11953680771_8" function="internal">
        <lane id=":11953680771_8_0" index="0" allow="pedestrian delivery bicycle" speed="3.65" length="4.67" shape="388.74,184.65 389.48,185.89 389.51,186.78 388.80,187.34 387.38,187.55"/>
    </edge>
    <edge id=":12737371208_0" function="internal">
        <lane id=":12737371208_0_0" index="0" allow="pedestrian delivery bicycle" speed="8.33" length="5.86" shape="461.00,142.78 455.72,145.33"/>
    </edge>
    <edge id=":12747993855_0" function="internal">
        <lane id=":12747993855_0_0" index="0" allow="pedestrian delivery bicycle" speed="5.56" length="2.03" shape="449.28,160.97 447.37,161.65"/>
    </edge>
    <edge id=":12747993855_1" function="internal">
        <lane id=":12747993855_1_0" index="0" allow="pedestrian delivery bicycle" speed="3.65" length="1.44" shape="449.28,160.97 447.88,160.62"/>
    </edge>
    <edge id=":12747993855_4" function="internal">
        <lane id=":12747993855_4_0" index="0" allow="pedestrian delivery bicycle" speed="3.65" length="3.23" shape="447.88,160.62 447.24,160.00 447.35,159.11 448.21,157.96"/>
    </edge>
    <edge id=":12747993855_2" function="internal">
        <lane id=":12747993855_2_0" index="0" allow="pedestrian delivery bicycle" speed="5.56" length="2.04" shape="446.29,158.64 448.21,157.96"/>
    </edge>
    <edge id=":12747993855_3" function="internal">
        <lane id=":12747993855_3_0" index="0" allow="pedestrian delivery bicycle" speed="3.65" length="1.44" shape="446.29,158.64 447.69,158.99"/>
    </edge>
    <edge id=":12747993855_5" function="internal">
        <lane id=":12747993855_5_0" index="0" allow="pedestrian delivery bicycle" speed="3.65" length="3.23" shape="447.69,158.99 448.33,159.61 448.23,160.50 447.37,161.65"/>
    </edge>
    <edge id=":15643088_0" function="internal">
        <lane id=":15643088_0_0" index="0" allow="bicycle" speed="3.55" length="1.83" width="2.00" shape="341.43,291.75 341.13,291.39 340.76,291.20 340.34,291.19 339.85,291.36"/>
    </edge>
    <edge id=":15643088_1" function="internal">
        <lane id=":15643088_1_0" index="0" allow="bus bicycle" speed="8.33" length="5.64" shape="341.94,291.44 339.06,286.59"/>
    </edge>
    <edge id=":15643088_2" function="internal">
        <lane id=":15643088_2_0" index="0" allow="bus bicycle" speed="3.65" length="1.44" shape="341.94,291.44 342.02,290.00"/>
    </edge>
    <edge id=":15643088_9" function="internal">
        <lane id=":15643088_9_0" index="0" allow="bus bicycle" speed="3.65" length="3.23" shape="342.02,290.00 342.50,289.25 343.39,289.19 344.70,289.81"/>
    </edge>
    <edge id=":15643088_3" function="internal">
        <lane id=":15643088_3_0" index="0" disallow="tram rail_urban rail rail_electric rail_fast ship container cable_car subway aircraft wheelchair scooter drone" speed="8.33" length="5.64" shape="344.56,283.32 347.45,288.17"/>
        <lane id=":15643088_3_1" index="1" disallow="tram rail_urban rail rail_electric rail_fast ship container cable_car subway aircraft wheelchair scooter drone" speed="8.33" length="5.64" shape="341.81,284.96 344.70,289.81"/>
    </edge>
    <edge id=":15643088_5" function="internal">
        <lane id=":15643088_5_0" index="0" allow="bicycle" speed="5.76" length="0.83" width="2.00" shape="341.30,285.26 341.63,286.03"/>
    </edge>
    <edge id=":15643088_10" function="internal">
        <lane id=":15643088_10_0" index="0" allow="bicycle" speed="5.76" length="6.43" width="2.00" shape="341.63,286.03 342.13,287.20 342.17,288.87 341.41,290.25 339.85,291.36"/>
    </edge>
    <edge id=":15643088_6" function="internal">
        <lane id=":15643088_6_0" index="0" allow="bicycle" speed="3.80" length="2.95" width="2.00" shape="338.96,289.56 339.27,289.23 339.31,288.67 339.07,287.90 338.55,286.90"/>
    </edge>
    <edge id=":15643088_7" function="internal">
        <lane id=":15643088_7_0" index="0" allow="bicycle" speed="5.77" length="6.83" width="2.00" shape="338.96,289.56 341.18,288.66 342.95,288.35 344.30,288.63 345.21,289.50"/>
    </edge>
    <edge id=":15643088_8" function="internal">
        <lane id=":15643088_8_0" index="0" allow="bicycle" speed="2.89" length="2.92" width="2.00" shape="338.96,289.56 339.86,289.68 340.30,290.02 340.30,290.57 339.85,291.36"/>
    </edge>
    <edge id=":1736163019_0" function="internal">
        <lane id=":1736163019_0_0" index="0" allow="pedestrian delivery bicycle" speed="3.65" length="4.67" shape="426.52,282.23 426.78,280.81 427.36,280.13 428.25,280.18 429.46,280.97"/>
    </edge>
    <edge id=":1736163021_0" function="internal">
        <lane id=":1736163021_0_0" index="0" allow="pedestrian delivery bicycle" speed="8.33" length="3.02" shape="352.61,287.56 349.93,288.96"/>
    </edge>
    <edge id=":1736163028_0" function="internal">
        <lane id=":1736163028_0_0" index="0" allow="pedestrian delivery bicycle" speed="5.56" length="3.26" shape="356.99,301.83 359.89,300.35"/>
    </edge>
    <edge id=":1742913645_0" function="internal">
        <lane id=":1742913645_0_0" index="0" allow="emergency authority pedestrian delivery bicycle" speed="3.65" length="4.67" shape="427.56,480.34 426.14,480.07 425.46,479.49 425.51,478.60 426.30,477.39"/>
    </edge>
    <edge id=":1978091880_0" function="internal">
        <lane id=":1978091880_0_0" index="0" allow="bus bicycle" speed="8.33" length="5.20" shape="356.45,318.62 354.22,313.93"/>
    </edge>
    <edge id=":1978091880_1" function="internal">
        <lane id=":1978091880_1_0" index="0" allow="bus bicycle" speed="3.65" length="1.44" shape="356.45,318.62 356.69,317.20"/>
    </edge>
    <edge id=":1978091880_4" function="internal">
        <lane id=":1978091880_4_0" index="0" allow="bus bicycle" speed="3.65" length="3.23" shape="356.69,317.20 357.26,316.51 358.15,316.55 359.37,317.31"/>
    </edge>
    <edge id=":1978091880_2" function="internal">
        <lane id=":1978091880_2_0" index="0" disallow="tram rail_urban rail rail_electric rail_fast ship container cable_car subway aircraft wheelchair scooter drone" speed="8.33" length="5.41" shape="359.94,311.05 362.29,316.01"/>
        <lane id=":1978091880_2_1" index="1" disallow="tram rail_urban rail rail_electric rail_fast ship container cable_car subway aircraft wheelchair scooter drone" speed="8.33" length="5.41" shape="357.08,312.49 359.37,317.31"/>
    </edge>
    <edge id=":2066708518_0" function="internal">
        <lane id=":2066708518_0_0" index="0" disallow="tram rail_urban rail rail_electric rail_fast ship container cable_car subway aircraft wheelchair scooter drone" speed="8.33" length="6.21" shape="452.01,150.43 449.70,144.67"/>
    </edge>
    <edge id=":2066708518_1" function="internal">
        <lane id=":2066708518_1_0" index="0" allow="pedestrian delivery bicycle" speed="4.97" length="5.08" shape="453.79,146.26 452.45,146.68 451.32,146.56 450.40,145.89 449.70,144.67"/>
    </edge>
    <edge id=":2165221536_0" function="internal">
        <lane id=":2165221536_0_0" index="0" disallow="tram rail_urban rail rail_electric rail_fast ship container cable_car subway aircraft wheelchair scooter drone" speed="8.33" length="0.30" shape="513.08,328.13 512.81,328.26"/>
    </edge>
    <edge id=":2165221538_0" function="internal">
        <lane id=":2165221538_0_0" index="0" disallow="tram rail_urban rail rail_electric rail_fast ship container cable_car subway aircraft wheelchair scooter drone" speed="8.33" length="4.94" shape="400.68,378.42 396.17,380.44"/>
    </edge>