<?xml version="1.0" encoding="UTF-8"?>

<!-- generated on 2025-11-16T20:26:26.836749-03:00 by Eclipse SUMO netconvert 1.25.0
<netconvertConfiguration xmlns:xsi="http://www.w3.org/2001/XMLSchema-instance" xsi:noNamespaceSchemaLocation="http://sumo.dlr.de/xsd/netconvertConfiguration.xsd">

    <input>
        <osm-files value="optimized_maps/osm_files/rural.osm"/>
    </input>

    <output>
        <output-file value="optimized_maps/sumo_xml/rural.net.xml"/>
    </output>

    <projection>
        <proj.utm value="true"/>
    </projection>

    <processing>
        <geometry.remove value="true"/>
        <roundabouts.guess value="true"/>
    </processing>

    <tls_building>
        <tls.discard-simple value="true"/>
        <tls.join value="true"/>
        <tls.guess-signals value="true"/>
    </tls_building>

    <ramp_guessing>
        <ramps.guess value="true"/>
    </ramp_guessing>

    <junctions>
        <junctions.join value="true"/>
    </junctions>

</netconvertConfiguration>
-->

<net version="1.20" junctionCornerDetail="5" limitTurnSpeed="5.50" xmlns:xsi="http://www.w3.org/2001/XMLSchema-instance" xsi:noNamespaceSchemaLocation="http://sumo.dlr.de/xsd/net_file.xsd">

    <location netOffset="-675159.63,-5106928.76" convBoundary="0.00,0.00,2245.26,1964.10" origBoundary="11.266049,46.093189,11.295220,46.110794" projParameter="+proj=utm +zone=32 +ellps=WGS84 +datum=WGS84 +units=m +no_defs"/>

    <type id="highway.path" priority="1" numLanes="1" speed="5.56" allow="pedestrian bicycle" oneway="0" width="2.00"/>
    <type id="highway.residential" priority="3" numLanes="1" speed="13.89" disallow="tram rail_urban rail rail_electric rail_fast ship container cable_car subway aircraft wheelchair scooter drone" oneway="0"/>
    <type id="highway.secondary" priority="11" numLanes="1" speed="27.78" disallow="tram rail_urban rail rail_electric rail_fast ship container cable_car subway aircraft wheelchair scooter drone" oneway="0"/>
    <type id="highway.service" priority="1" numLanes="1" speed="5.56" allow="pedestrian delivery bicycle" oneway="0"/>
    <type id="highway.track" priority="1" numLanes="1" speed="5.56" allow="pedestrian motorcycle moped bicycle" oneway="0"/>
    <type id="highway.unclassified" priority="4" numLanes="1" speed="13.89" disallow="tram rail_urban rail rail_electric rail_fast ship container cable_car subway aircraft wheelchair scooter drone" oneway="0"/>

    <edge id=":11226831873_0" function="internal">
        <lane id=":11226831873_0_0" index="0" allow="pedestrian bicycle" speed="2.89" length="2.92" width="2.00" shape="1120.95,1114.71 1120.94,1115.61 1120.66,1116.10 1120.10,1116.16 1119.27,1115.81"/>
    </edge>
    <edge id=":11393427269_0" function="internal">
        <lane id=":11393427269_0_0" index="0" disallow="tram rail_urban rail rail_electric rail_fast ship container cable_car subway aircraft wheelchair scooter drone" speed="3.65" length="4.67" shape="2124.97,568.69 2125.20,570.11 2124.89,570.95 2124.04,571.20 2122.63,570.87"/>
    </edge>
    <edge id=":1499420944_0" function="internal">
        <lane id=":1499420944_0_0" index="0" allow="pedestrian motorcycle moped bicycle" speed="3.65" length="4.67" shape="1317.12,1963.28 1317.05,1964.72 1316.57,1965.47 1315.68,1965.54 1314.38,1964.92"/>
    </edge>
    <edge id=":157385615_0" function="internal">
        <lane id=":157385615_0_0" index="0" disallow="tram rail_urban rail rail_electric rail_fast ship container cable_car subway aircraft wheelchair scooter drone" speed="3.65" length="4.67" shape="1321.72,70.83 1323.00,70.15 1323.89,70.18 1324.40,70.91 1324.54,72.35"/>
    </edge>
    <edge id=":1655665242_0" function="internal">
        <lane id=":1655665242_0_0" index="0" disallow="tram rail_urban rail rail_electric rail_fast ship container cable_car subway aircraft wheelchair scooter drone" speed="27.78" length="15.24" shape="1692.20,224.22 1677.71,219.50"/>
    </edge>
    <edge id=":1655665242_1" function="internal">
        <lane id=":1655665242_1_0" index="0" disallow="tram rail_urban rail rail_electric rail_fast ship container cable_car subway aircraft wheelchair scooter drone" speed="7.39" length="4.49" shape="1692.20,224.22 1688.20,222.17"/>
    </edge>
    <edge id=":1655665242_2" function="internal">
        <lane id=":1655665242_2_0" index="0" disallow="tram rail_urban rail rail_electric rail_fast ship container cable_car subway aircraft wheelchair scooter drone" speed="3.65" length="1.44" shape="1692.20,224.22 1691.34,223.06"/>
    </edge>
    <edge id=":1655665242_9" function="internal">
        <lane id=":1655665242_9_0" index="0" disallow="tram rail_urban rail rail_electric rail_fast ship container cable_car subway aircraft wheelchair scooter drone" speed="7.39" length="12.55" shape="1688.20,222.17 1687.61,221.87 1685.75,219.07 1686.61,215.81 1690.19,212.11"/>
    </edge>
    <edge id=":1655665242_10" function="internal">
        <lane id=":1655665242_10_0" index="0" disallow="tram rail_urban rail rail_electric rail_fast ship container cable_car subway aircraft wheelchair scooter drone" speed="3.65" length="3.23" shape="1691.34,223.06 1691.23,222.18 1691.87,221.56 1693.27,221.21"/>
    </edge>
    <edge id=":1655665242_3" function="internal">
        <lane id=":1655665242_3_0" index="0" disallow="tram rail_urban rail rail_electric rail_fast ship container cable_car subway aircraft wheelchair scooter drone" speed="5.64" length="9.28" shape="1692.18,214.61 1690.23,216.63 1689.76,218.40 1690.78,219.93 1693.27,221.21"/>
    </edge>
    <edge id=":1655665242_4" function="internal">
        <lane id=":1655665242_4_0" index="0" disallow="tram rail_urban rail rail_electric rail_fast ship container cable_car subway aircraft wheelchair scooter drone" speed="11.54" length="15.81" shape="1692.18,214.61 1688.18,217.38 1684.43,219.12 1680.94,219.82 1677.71,219.50"/>
    </edge>
    <edge id=":1655665242_5" function="internal">
        <lane id=":1655665242_5_0" index="0" disallow="tram rail_urban rail rail_electric rail_fast ship container cable_car subway aircraft wheelchair scooter drone" speed="3.65" length="4.67" shape="1692.18,214.61 1690.74,214.73 1689.93,214.36 1689.75,213.48 1690.19,212.11"/>
    </edge>
    <edge id=":1655665242_6" function="internal">
        <lane id=":1655665242_6_0" index="0" disallow="tram rail_urban rail rail_electric rail_fast ship container cable_car subway aircraft wheelchair scooter drone" speed="10.43" length="12.82" shape="1678.55,216.41 1681.02,216.61 1683.78,215.97 1686.84,214.46 1690.19,212.11"/>
    </edge>
    <edge id=":1655665242_7" function="internal">
        <lane id=":1655665242_7_0" index="0" disallow="tram rail_urban rail rail_electric rail_fast ship container cable_car subway aircraft wheelchair scooter drone" speed="27.78" length="15.49" shape="1678.55,216.41 1693.27,221.21"/>
    </edge>
    <edge id=":1655665242_8" function="internal">
        <lane id=":1655665242_8_0" index="0" disallow="tram rail_urban rail rail_electric rail_fast ship container cable_car subway aircraft wheelchair scooter drone" speed="3.65" length="1.44" shape="1678.55,216.41 1679.50,217.50"/>
    </edge>
    <edge id=":1655665242_11" function="internal">
        <lane id=":1655665242_11_0" index="0" disallow="tram rail_urban rail rail_electric rail_fast ship container cable_car subway aircraft wheelchair scooter drone" speed="3.65" length="3.23" shape="1679.50,217.50 1679.67,218.37 1679.07,219.04 1677.71,219.50"/>
    </edge>
    <edge id=":1655677744_0" function="internal">
        <lane id=":1655677744_0_0" index="0" disallow="tram rail_urban rail rail_electric rail_fast ship container cable_car subway aircraft wheelchair scooter drone" speed="3.65" length="4.67" shape="1805.67,49.28 1806.52,48.11 1807.33,47.74 1808.11,48.17 1808.87,49.40"/>
    </edge>
    <edge id=":1655677796_0" function="internal">
        <lane id=":1655677796_0_0" index="0" disallow="tram rail_urban rail rail_electric rail_fast ship container cable_car subway aircraft wheelchair scooter drone" speed="13.89" length="12.96" shape="1876.37,288.94 1873.03,288.18 1870.01,287.78 1866.96,287.67 1863.53,287.78"/>
    </edge>
    <edge id=":1655677796_1" function="internal">
        <lane id=":1655677796_1_0" index="0" disallow="tram rail_urban rail rail_electric rail_fast ship container cable_car subway aircraft wheelchair scooter drone" speed="9.15" length="3.44" shape="1876.37,288.94 1873.21,287.59"/>
    </edge>
    <edge id=":1655677796_2" function="internal">
        <lane id=":1655677796_2_0" index="0" disallow="tram rail_urban rail rail_electric rail_fast ship container cable_car subway aircraft wheelchair scooter drone" speed="3.65" length="1.44" shape="1876.37,288.94 1875.41,287.86"/>
    </edge>
    <edge id=":1655677796_9" function="internal">
        <lane id=":1655677796_9_0" index="0" disallow="tram rail_urban rail rail_electric rail_fast ship container cable_car subway aircraft wheelchair scooter drone" speed="9.15" length="10.44" shape="1873.21,287.59 1870.84,285.42 1869.28,282.44 1868.51,278.65"/>
    </edge>
    <edge id=":1655677796_10" function="internal">
        <lane id=":1655677796_10_0" index="0" disallow="tram rail_urban rail rail_electric rail_fast ship container cable_car subway aircraft wheelchair scooter drone" speed="3.65" length="3.23" shape="1875.41,287.86 1875.23,286.98 1875.82,286.31 1877.19,285.85"/>
    </edge>
    <edge id=":1655677796_3" function="internal">
        <lane id=":1655677796_3_0" index="0" disallow="tram rail_urban rail rail_electric rail_fast ship container cable_car subway aircraft wheelchair scooter drone" speed="7.82" length="9.94" shape="1871.70,278.37 1872.24,281.15 1873.34,283.32 1874.99,284.89 1877.19,285.85"/>
    </edge>
    <edge id=":1655677796_4" function="internal">
        <lane id=":1655677796_4_0" index="0" disallow="tram rail_urban rail rail_electric rail_fast ship container cable_car subway aircraft wheelchair scooter drone" speed="7.94" length="14.32" shape="1871.70,278.37 1871.48,282.31 1870.05,285.19 1867.39,287.01 1863.53,287.78"/>
    </edge>
    <edge id=":1655677796_5" function="internal">
        <lane id=":1655677796_5_0" index="0" disallow="tram rail_urban rail rail_electric rail_fast ship container cable_car subway aircraft wheelchair scooter drone" speed="3.65" length="4.67" shape="1871.70,278.37 1871.01,279.63 1870.24,280.10 1869.41,279.77 1868.51,278.65"/>
    </edge>
    <edge id=":1655677796_6" function="internal">
        <lane id=":1655677796_6_0" index="0" disallow="tram rail_urban rail rail_electric rail_fast ship container cable_car subway aircraft wheelchair scooter drone" speed="6.44" length="9.03" shape="1863.36,284.58 1865.80,284.10 1867.47,282.95 1868.37,281.13 1868.51,278.65"/>
    </edge>
    <edge id=":1655677796_7" function="internal">
        <lane id=":1655677796_7_0" index="0" disallow="tram rail_urban rail rail_electric rail_fast ship container cable_car subway aircraft wheelchair scooter drone" speed="13.89" length="13.95" shape="1863.36,284.58 1866.94,284.49 1870.33,284.63 1873.69,285.07 1877.19,285.85"/>
    </edge>
    <edge id=":1655677796_8" function="internal">
        <lane id=":1655677796_8_0" index="0" disallow="tram rail_urban rail rail_electric rail_fast ship container cable_car subway aircraft wheelchair scooter drone" speed="3.65" length="1.44" shape="1863.36,284.58 1864.60,285.32"/>
    </edge>
    <edge id=":1655677796_11" function="internal">
        <lane id=":1655677796_11_0" index="0" disallow="tram rail_urban rail rail_electric rail_fast ship container cable_car subway aircraft wheelchair scooter drone" speed="3.65" length="3.23" shape="1864.60,285.32 1865.04,286.09 1864.68,286.91 1863.53,287.78"/>
    </edge>
    <edge id=":1655677902_0" function="internal">
        <lane id=":1655677902_0_0" index="0" disallow="tram rail_urban rail rail_electric rail_fast ship container cable_car subway aircraft wheelchair scooter drone" speed="3.65" length="4.67" shape="2245.42,698.13 2244.40,699.14 2243.53,699.38 2242.83,698.83 2242.28,697.49"/>
    </edge>
    <edge id=":1655766637_0" function="internal">
        <lane id=":1655766637_0_0" index="0" disallow="tram rail_urban rail rail_electric rail_fast ship container cable_car subway aircraft wheelchair scooter drone" speed="27.78" length="16.77" shape="1750.82,256.21 1748.04,253.28 1744.87,250.27 1741.49,247.53 1738.10,245.38"/>
    </edge>
    <edge id=":1655766637_1" function="internal">
        <lane id=":1655766637_1_0" index="0" allow="pedestrian delivery bicycle" speed="5.97" length="2.42" shape="1750.82,256.21 1749.78,254.02"/>
    </edge>
    <edge id=":1655766637_7" function="internal">
        <lane id=":1655766637_7_0" index="0" allow="pedestrian delivery bicycle" speed="5.97" length="11.54" shape="1749.78,254.02 1749.13,252.67 1749.51,249.13 1751.57,246.80 1754.94,246.89"/>
    </edge>
    <edge id=":1655766637_2" function="internal">
        <lane id=":1655766637_2_0" index="0" allow="pedestrian delivery bicycle" speed="5.11" length="9.69" shape="1754.38,250.13 1751.33,249.07 1750.04,249.28 1750.52,250.79 1752.76,253.58"/>
    </edge>
    <edge id=":1655766637_3" function="internal">
        <lane id=":1655766637_3_0" index="0" allow="pedestrian delivery bicycle" speed="16.67" length="16.98" shape="1754.38,250.13 1750.52,248.87 1746.18,247.88 1741.87,246.82 1738.10,245.38"/>
    </edge>
    <edge id=":1655766637_4" function="internal">
        <lane id=":1655766637_4_0" index="0" allow="pedestrian delivery bicycle" speed="3.69" length="4.81" shape="1754.38,250.13 1753.30,249.11 1753.03,248.23 1753.58,247.49 1754.94,246.89"/>
    </edge>
    <edge id=":1655766637_5" function="internal">
        <lane id=":1655766637_5_0" index="0" allow="pedestrian delivery bicycle" speed="16.67" length="15.99" shape="1739.58,242.54 1743.21,243.92 1747.20,244.83 1751.23,245.69 1754.94,246.89"/>
    </edge>
    <edge id=":1655766637_6" function="internal">
        <lane id=":1655766637_6_0" index="0" disallow="tram rail_urban rail rail_electric rail_fast ship container cable_car subway aircraft wheelchair scooter drone" speed="27.78" length="17.25" shape="1739.58,242.54 1743.04,244.72 1746.57,247.54 1749.91,250.62 1752.76,253.58"/>
    </edge>
    <edge id=":1655766643_0" function="internal">
        <lane id=":1655766643_0_0" index="0" allow="pedestrian delivery bicycle" speed="3.65" length="4.67" shape="1756.68,247.64 1757.46,248.85 1757.51,249.75 1756.82,250.32 1755.40,250.58"/>
    </edge>
    <edge id=":1655766652_0" function="internal">
        <lane id=":1655766652_0_0" index="0" allow="pedestrian delivery bicycle" speed="3.65" length="4.67" shape="1777.72,274.42 1777.96,273.00 1778.53,272.31 1779.42,272.35 1780.64,273.12"/>
    </edge>
    <edge id=":1655766654_0" function="internal">
        <lane id=":1655766654_0_0" index="0" disallow="tram rail_urban rail rail_electric rail_fast ship container cable_car subway aircraft wheelchair scooter drone" speed="27.78" length="14.70" shape="1783.31,291.92 1773.42,281.04"/>
    </edge>
    <edge id=":1655766654_1" function="internal">
        <lane id=":1655766654_1_0" index="0" allow="pedestrian delivery bicycle" speed="16.67" length="3.25" shape="1783.31,291.92 1781.72,289.09"/>
    </edge>
    <edge id=":1655766654_7" function="internal">
        <lane id=":1655766654_7_0" index="0" allow="pedestrian delivery bicycle" speed="16.67" length="12.02" shape="1781.72,289.09 1781.51,288.73 1780.69,284.98 1780.10,281.07 1779.05,277.40"/>
    </edge>
    <edge id=":1655766654_2" function="internal">
        <lane id=":1655766654_2_0" index="0" allow="pedestrian delivery bicycle" speed="16.67" length="13.26" shape="1782.42,277.10 1783.32,280.48 1783.55,283.76 1784.04,286.87 1785.68,289.76"/>
    </edge>
    <edge id=":1655766654_3" function="internal">
        <lane id=":1655766654_3_0" index="0" allow="pedestrian delivery bicycle" speed="5.80" length="13.60" shape="1782.42,277.10 1782.47,280.39 1780.13,282.45 1776.69,282.83 1773.42,281.04"/>
    </edge>
    <edge id=":1655766654_4" function="internal">
        <lane id=":1655766654_4_0" index="0" allow="pedestrian delivery bicycle" speed="3.72" length="4.94" shape="1782.42,277.10 1781.69,278.44 1780.89,278.94 1780.01,278.59 1779.05,277.40"/>
    </edge>
    <edge id=":1655766654_5" function="internal">
        <lane id=":1655766654_5_0" index="0" allow="pedestrian delivery bicycle" speed="5.45" length="11.78" shape="1775.78,278.89 1778.89,281.98 1780.47,282.76 1780.52,281.24 1779.05,277.40"/>
    </edge>
    <edge id=":1655766654_6" function="internal">
        <lane id=":1655766654_6_0" index="0" disallow="tram rail_urban rail rail_electric rail_fast ship container cable_car subway aircraft wheelchair scooter drone" speed="27.78" length="14.70" shape="1775.78,278.89 1785.68,289.76"/>
    </edge>
    <edge id=":1655773151_0" function="internal">
        <lane id=":1655773151_0_0" index="0" disallow="tram rail_urban rail rail_electric rail_fast ship container cable_car subway aircraft wheelchair scooter drone" speed="3.65" length="4.67" shape="1787.90,570.49 1787.97,569.05 1788.44,568.29 1789.34,568.22 1790.64,568.83"/>
    </edge>
    <edge id=":3754257601_0" function="internal">
        <lane id=":3754257601_0_0" index="0" disallow="tram rail_urban rail rail_electric rail_fast ship container cable_car subway aircraft wheelchair scooter drone" speed="12.69" length="13.44" shape="1462.77,1150.84 1461.70,1147.58 1459.91,1144.98 1457.53,1142.72 1454.74,1140.51"/>
    </edge>
    <edge id=":3754257601_1" function="internal">
        <lane id=":3754257601_1_0" index="0" disallow="tram rail_urban rail rail_electric rail_fast ship container cable_car subway aircraft wheelchair scooter drone" speed="8.60" length="3.18" shape="1462.77,1150.84 1462.58,1147.67"/>
    </edge>
    <edge id=":3754257601_2" function="internal">
        <lane id=":3754257601_2_0" index="0" disallow="tram rail_urban rail rail_electric rail_fast ship container cable_car subway aircraft wheelchair scooter drone" speed="3.74" length="1.80" shape="1462.77,1150.84 1462.85,1149.30 1462.98,1149.09"/>
    </edge>
    <edge id=":3754257601_9" function="internal">
        <lane id=":3754257601_9_0" index="0" disallow="tram rail_urban rail rail_electric rail_fast ship container cable_car subway aircraft wheelchair scooter drone" speed="8.60" length="12.21" shape="1462.58,1147.67 1462.50,1146.31 1463.46,1142.75 1465.65,1140.18 1469.07,1138.58"/>
    </edge>
    <edge id=":3754257601_10" function="internal">
        <lane id=":3754257601_10_0" index="0" disallow="tram rail_urban rail rail_electric rail_fast ship container cable_car subway aircraft wheelchair scooter drone" speed="3.74" length="3.20" shape="1462.98,1149.09 1463.36,1148.49 1464.32,1148.42 1465.71,1149.08"/>
    </edge>
    <edge id=":3754257601_3" function="internal">
        <lane id=":3754257601_3_0" index="0" disallow="tram rail_urban rail rail_electric rail_fast ship container cable_car subway aircraft wheelchair scooter drone" speed="6.89" length="9.53" shape="1469.92,1141.67 1467.68,1142.67 1466.23,1144.24 1465.58,1146.38 1465.71,1149.08"/>
    </edge>
    <edge id=":3754257601_4" function="internal">
        <lane id=":3754257601_4_0" index="0" disallow="tram rail_urban rail rail_electric rail_fast ship container cable_car subway aircraft wheelchair scooter drone" speed="11.58" length="15.75" shape="1469.92,1141.67 1465.17,1142.64 1461.06,1142.77 1457.58,1142.06 1454.74,1140.51"/>
    </edge>
    <edge id=":3754257601_5" function="internal">
        <lane id=":3754257601_5_0" index="0" disallow="tram rail_urban rail rail_electric rail_fast ship container cable_car subway aircraft wheelchair scooter drone" speed="3.65" length="4.67" shape="1469.92,1141.67 1468.55,1141.21 1467.95,1140.55 1468.13,1139.67 1469.07,1138.58"/>
    </edge>
    <edge id=":3754257601_6" function="internal">
        <lane id=":3754257601_6_0" index="0" disallow="tram rail_urban rail rail_electric rail_fast ship container cable_car subway aircraft wheelchair scooter drone" speed="10.47" length="12.78" shape="1456.70,1137.98 1458.90,1139.13 1461.69,1139.61 1465.08,1139.43 1469.07,1138.58"/>
    </edge>
    <edge id=":3754257601_7" function="internal">
        <lane id=":3754257601_7_0" index="0" disallow="tram rail_urban rail rail_electric rail_fast ship container cable_car subway aircraft wheelchair scooter drone" speed="13.23" length="14.63" shape="1456.70,1137.98 1459.65,1140.32 1462.36,1142.84 1464.49,1145.71 1465.71,1149.08"/>
    </edge>
    <edge id=":3754257601_8" function="internal">
        <lane id=":3754257601_8_0" index="0" disallow="tram rail_urban rail rail_electric rail_fast ship container cable_car subway aircraft wheelchair scooter drone" speed="3.65" length="1.44" shape="1456.70,1137.98 1457.16,1139.35"/>
    </edge>
    <edge id=":3754257601_11" function="internal">
        <lane id=":3754257601_11_0" index="0" disallow="tram rail_urban rail rail_electric rail_fast ship container cable_car subway aircraft wheelchair scooter drone" speed="3.65" length="3.23" shape="1457.16,1139.35 1456.98,1140.23 1456.17,1140.61 1454.74,1140.51"/>
    </edge>
    <edge id=":3754257635_0" function="internal">
        <lane id=":3754257635_0_0" index="0" disallow="tram rail_urban rail rail_electric rail_fast ship container cable_car subway aircraft wheelchair scooter drone" speed="3.65" length="4.67" shape="1512.54,1171.64 1511.22,1172.21 1510.33,1172.11 1509.88,1171.34 1509.86,1169.90"/>
    </edge>
    <edge id=":3754257642_0" function="internal">
        <lane id=":3754257642_0_0" index="0" disallow="tram rail_urban rail rail_electric rail_fast ship container cable_car subway aircraft wheelchair scooter drone" speed="11.11" length="18.29" shape="1932.19,1177.42 1930.13,1181.20 1927.92,1185.61 1926.14,1190.13 1925.38,1194.25"/>
    </edge>
    <edge id=":3754257642_1" function="internal">
        <lane id=":3754257642_1_0" index="0" disallow="tram rail_urban rail rail_electric rail_fast ship container cable_car subway aircraft wheelchair scooter drone" speed="7.43" length="4.21" shape="1932.19,1177.42 1929.62,1180.76"/>
    </edge>
    <edge id=":3754257642_2" function="internal">
        <lane id=":3754257642_2_0" index="0" disallow="tram rail_urban rail rail_electric rail_fast ship container cable_car subway aircraft wheelchair scooter drone" speed="3.65" length="1.44" shape="1932.19,1177.42 1930.92,1178.09"/>
    </edge>
    <edge id=":3754257642_9" function="internal">
        <lane id=":3754257642_9_0" index="0" disallow="tram rail_urban rail rail_electric rail_fast ship container cable_car subway aircraft wheelchair scooter drone" speed="7.43" length="13.06" shape="1929.62,1180.76 1929.35,1181.12 1926.33,1182.02 1923.15,1180.14 1919.80,1175.46"/>
    </edge>
    <edge id=":3754257642_10" function="internal">
        <lane id=":3754257642_10_0" index="0" disallow="tram rail_urban rail rail_electric rail_fast ship container cable_car subway aircraft wheelchair scooter drone" speed="3.65" length="3.23" shape="1930.92,1178.09 1930.03,1178.06 1929.51,1177.33 1929.38,1175.90"/>
    </edge>
    <edge id=":3754257642_3" function="internal">
        <lane id=":3754257642_3_0" index="0" disallow="tram rail_urban rail rail_electric rail_fast ship container cable_car subway aircraft wheelchair scooter drone" speed="5.43" length="8.52" shape="1923.26,1175.08 1924.90,1177.35 1926.46,1178.25 1927.96,1177.76 1929.38,1175.90"/>
    </edge>
    <edge id=":3754257642_4" function="internal">
        <lane id=":3754257642_4_0" index="0" disallow="tram rail_urban rail rail_electric rail_fast ship container cable_car subway aircraft wheelchair scooter drone" speed="8.33" length="19.44" shape="1923.26,1175.08 1924.64,1179.21 1925.27,1184.42 1925.43,1189.76 1925.38,1194.25"/>
    </edge>
    <edge id=":3754257642_5" function="internal">
        <lane id=":3754257642_5_0" index="0" disallow="tram rail_urban rail rail_electric rail_fast ship container cable_car subway aircraft wheelchair scooter drone" speed="3.76" length="5.08" shape="1923.26,1175.08 1922.54,1176.47 1921.72,1177.00 1920.81,1176.66 1919.80,1175.46"/>
    </edge>
    <edge id=":3754257642_6" function="internal">
        <lane id=":3754257642_6_0" index="0" disallow="tram rail_urban rail rail_electric rail_fast ship container cable_car subway aircraft wheelchair scooter drone" speed="8.33" length="19.05" shape="1922.18,1194.21 1922.19,1189.78 1921.94,1184.59 1921.22,1179.52 1919.80,1175.46"/>
    </edge>
    <edge id=":3754257642_7" function="internal">
        <lane id=":3754257642_7_0" index="0" disallow="tram rail_urban rail rail_electric rail_fast ship container cable_car subway aircraft wheelchair scooter drone" speed="11.11" length="19.80" shape="1922.18,1194.21 1923.00,1189.85 1924.91,1184.82 1927.26,1179.91 1929.38,1175.90"/>
    </edge>
    <edge id=":3754257642_8" function="internal">
        <lane id=":3754257642_8_0" index="0" disallow="tram rail_urban rail rail_electric rail_fast ship container cable_car subway aircraft wheelchair scooter drone" speed="3.65" length="1.44" shape="1922.18,1194.21 1923.00,1193.02"/>
    </edge>
    <edge id=":3754257642_11" function="internal">
        <lane id=":3754257642_11_0" index="0" disallow="tram rail_urban rail rail_electric rail_fast ship container cable_car subway aircraft wheelchair scooter drone" speed="3.65" length="3.23" shape="1923.00,1193.02 1923.81,1192.63 1924.60,1193.04 1925.38,1194.25"/>
    </edge>
    <edge id=":3955140868_0" function="internal">
        <lane id=":3955140868_0_0" index="0" allow="pedestrian motorcycle moped bicycle" speed="6.12" length="6.69" shape="1153.79,987.59 1152.03,987.94 1150.50,987.71 1149.18,986.89 1148.07,985.48"/>
    </edge>
    <edge id=":3955140868_1" function="internal">
        <lane id=":3955140868_1_0" index="0" disallow="tram rail_urban rail rail_electric rail_fast ship container cable_car subway aircraft wheelchair scooter drone" speed="3.65" length="4.67" shape="1153.79,987.59 1152.39,987.23 1151.75,986.60 1151.87,985.72 1152.74,984.57"/>
    </edge>
    <edge id=":3955140868_2" function="internal">
        <lane id=":3955140868_2_0" index="0" allow="pedestrian motorcycle moped bicycle" speed="3.93" length="2.23" shape="1150.83,983.86 1151.20,984.33 1151.64,984.61 1152.15,984.68 1152.74,984.57"/>
    </edge>
    <edge id=":3955140885_0" function="internal">
        <lane id=":3955140885_0_0" index="0" allow="pedestrian bicycle" speed="5.56" length="17.55" width="2.00" shape="1112.09,1104.87 1109.21,1102.07 1105.19,1099.86 1100.80,1098.13 1096.80,1096.76"/>
    </edge>
    <edge id=":3955140885_1" function="internal">
        <lane id=":3955140885_1_0" index="0" allow="pedestrian bicycle" speed="5.56" length="18.51" width="2.00" shape="1112.09,1104.87 1109.78,1101.20 1107.05,1097.00 1104.04,1093.08 1100.90,1090.27"/>
    </edge>
    <edge id=":3955140885_2" function="internal">
        <lane id=":3955140885_2_0" index="0" allow="pedestrian bicycle" speed="2.89" length="2.92" width="2.00" shape="1112.09,1104.87 1112.10,1103.97 1112.38,1103.48 1112.93,1103.42 1113.76,1103.77"/>
    </edge>
    <edge id=":3955140885_3" function="internal">
        <lane id=":3955140885_3_0" index="0" allow="pedestrian bicycle" speed="5.56" length="18.51" width="2.00" shape="1103.81,1088.32 1106.76,1091.27 1109.34,1095.48 1111.64,1099.97 1113.76,1103.77"/>
    </edge>
    <edge id=":3955140885_4" function="internal">
        <lane id=":3955140885_4_0" index="0" allow="pedestrian motorcycle moped bicycle" speed="5.56" length="15.27" shape="1103.81,1088.32 1105.70,1091.29 1104.40,1094.51 1101.05,1096.74 1096.80,1096.76"/>
    </edge>
    <edge id=":3955140885_5" function="internal">
        <lane id=":3955140885_5_0" index="0" allow="pedestrian motorcycle moped bicycle" speed="3.76" length="5.12" shape="1103.81,1088.32 1103.81,1089.90 1103.33,1090.75 1102.36,1090.87 1100.90,1090.27"/>
    </edge>
    <edge id=":3955140885_6" function="internal">
        <lane id=":3955140885_6_0" index="0" allow="pedestrian motorcycle moped bicycle" speed="5.56" length="20.04" shape="1098.04,1093.80 1105.31,1096.05 1108.21,1096.22 1106.74,1094.29 1100.90,1090.27"/>
    </edge>
    <edge id=":3955140885_7" function="internal">
        <lane id=":3955140885_7_0" index="0" allow="pedestrian bicycle" speed="5.56" length="18.83" width="2.00" shape="1098.04,1093.80 1102.10,1095.47 1106.64,1097.84 1110.81,1100.68 1113.76,1103.77"/>
    </edge>
    <edge id=":3955140885_8" function="internal">
        <lane id=":3955140885_8_0" index="0" allow="pedestrian motorcycle moped bicycle" speed="3.65" length="4.68" shape="1098.04,1093.80 1098.84,1095.00 1098.90,1095.90 1098.22,1096.48 1096.80,1096.76"/>
    </edge>
    <edge id=":4055031092_0" function="internal">
        <lane id=":4055031092_0_0" index="0" disallow="tram rail_urban rail rail_electric rail_fast ship container cable_car subway aircraft wheelchair scooter drone" speed="3.65" length="4.67" shape="2179.39,1508.26 2178.33,1509.24 2177.46,1509.45 2176.77,1508.87 2176.27,1507.52"/>
    </edge>
    <edge id=":4055031151_0" function="internal">
        <lane id=":4055031151_0_0" index="0" allow="pedestrian motorcycle moped bicycle" speed="3.65" length="4.67" shape="1624.30,1614.59 1624.94,1615.88 1624.89,1616.78 1624.14,1617.27 1622.70,1617.37"/>
    </edge>
    <edge id=":411789776_0" function="internal">
        <lane id=":411789776_0_0" index="0" disallow="tram rail_urban rail rail_electric rail_fast ship container cable_car subway aircraft wheelchair scooter drone" speed="3.65" length="4.67" shape="1552.91,148.13 1552.66,146.71 1552.97,145.87 1553.83,145.61 1555.23,145.93"/>
    </edge>
    <edge id=":4243272721_0" function="internal">
        <lane id=":4243272721_0_0" index="0" allow="pedestrian motorcycle moped bicycle" speed="3.65" length="4.67" shape="387.46,1292.90 388.53,1293.86 388.81,1294.71 388.30,1295.44 387.00,1296.06"/>