<?xml version="1.0" encoding="UTF-8"?>

<!-- generated on 2025-11-17T19:25:54.960170-03:00 by Eclipse SUMO netconvert 1.25.0
<netconvertConfiguration xmlns:xsi="http://www.w3.org/2001/XMLSchema-instance" xsi:noNamespaceSchemaLocation="http://sumo.dlr.de/xsd/netconvertConfiguration.xsd">

    <input>
        <osm-files value="research_maps/osm_files/rural.osm"/>
    </input>

    <output>
        <output-file value="research_maps/sumo_xml/rural.net.xml"/>
    </output>

    <projection>
        <proj.utm value="true"/>
    </projection>

    <processing>
        <geometry.remove value="true"/>
        <offset.disable-normalization value="true"/>
        <roundabouts.guess value="true"/>
    </processing>

    <tls_building>
        <tls.discard-simple value="true"/>
        <tls.join value="true"/>
        <tls.guess-signals value="true"/>
    </tls_building>

    <ramp_guessing>
        <ramps.guess value="true"/>
    </ramp_guessing>

    <edge_removal>
        <keep-edges.by-vclass value="passenger"/>
        <remove-edges.by-vclass value="pedestrian,bicycle"/>
    </edge_removal>

    <junctions>
        <junctions.join value="true"/>
        <junctions.join-dist value="15.0"/>
    </junctions>

    <report>
        <verbose value="true"/>
    </report>

</netconvertConfiguration>
-->

<net version="1.20" junctionCornerDetail="5" limitTurnSpeed="5.50" xmlns:xsi="http://www.w3.org/2001/XMLSchema-instance" xsi:noNamespaceSchemaLocation="http://sumo.dlr.de/xsd/net_file.xsd">

    <location netOffset="0.00,0.00" convBoundary="364821.00,5801576.11,367354.35,5804395.97" origBoundary="13.012408,52.331073,13.079594,52.382091" projParameter="+proj=utm +zone=33 +ellps=WGS84 +datum=WGS84 +units=m +no_defs"/>

    <type id="highway.primary" priority="12" numLanes="2" speed="27.78" disallow="tram rail_urban rail rail_electric rail_fast ship container cable_car subway aircraft wheelchair scooter drone" oneway="0"/>
    <type id="highway.tertiary" priority="10" numLanes="1" speed="22.22" disallow="tram rail_urban rail rail_electric rail_fast ship container cable_car subway aircraft wheelchair scooter drone" oneway="0"/>

    <edge id=":10051996723_0" function="internal">
        <lane id=":10051996723_0_0" index="0" disallow="pedestrian tram rail_urban rail rail_electric rail_fast ship container cable_car subway aircraft wheelchair scooter drone" speed="3.65" length="4.67" shape="364820.15,5802090.88 364819.56,5802089.57 364819.65,5802088.68 364820.41,5802088.21 364821.85,5802088.18"/>
    </edge>
    <edge id=":10931525286_0" function="internal">
        <lane id=":10931525286_0_0" index="0" disallow="pedestrian tram rail_urban rail rail_electric rail_fast ship container cable_car subway aircraft wheelchair scooter drone" speed="22.22" length="8.83" shape="366864.57,5803171.85 366864.88,5803169.36 366865.86,5803167.74 366866.86,5803166.12 366867.21,5803163.62"/>
    </edge>
    <edge id=":10931525286_1" function="internal">
        <lane id=":10931525286_1_0" index="0" disallow="pedestrian tram rail_urban rail rail_electric rail_fast ship container cable_car subway aircraft wheelchair scooter drone" speed="25.00" length="7.95" shape="366870.40,5803163.43 366870.95,5803171.36"/>
    </edge>
    <edge id=":10931525288_0" function="internal">
        <lane id=":10931525288_0_0" index="0" disallow="pedestrian tram rail_urban rail rail_electric rail_fast ship container cable_car subway aircraft wheelchair scooter drone" speed="22.22" length="8.38" shape="366866.61,5803154.03 366865.96,5803151.61 366864.76,5803150.16 366863.56,5803148.71 366862.88,5803146.30"/>
        <lane id=":10931525288_0_1" index="1" disallow="pedestrian tram rail_urban rail rail_electric rail_fast ship container cable_car subway aircraft wheelchair scooter drone" speed="22.22" length="8.38" shape="366866.61,5803154.03 366866.07,5803146.06"/>
    </edge>
    <edge id=":10931525288_2" function="internal">
        <lane id=":10931525288_2_0" index="0" disallow="pedestrian tram rail_urban rail rail_electric rail_fast ship container cable_car subway aircraft wheelchair scooter drone" speed="22.22" length="8.02" shape="366869.26,5803145.83 366869.80,5803153.83"/>
    </edge>
    <edge id=":1316156209_0" function="internal">
        <lane id=":1316156209_0_0" index="0" disallow="pedestrian tram rail_urban rail rail_electric rail_fast ship container cable_car subway aircraft wheelchair scooter drone" speed="3.65" length="4.67" shape="366398.78,5804395.57 366398.30,5804396.93 366397.63,5804397.52 366396.75,5804397.33 366395.68,5804396.37"/>
    </edge>
    <edge id=":1727196454_0" function="internal">
        <lane id=":1727196454_0_0" index="0" disallow="pedestrian tram rail_urban rail rail_electric rail_fast ship container cable_car subway aircraft wheelchair scooter drone" speed="20.83" length="0.31" shape="366818.07,5802528.76 366818.04,5802528.45"/>
    </edge>
    <edge id=":1727196454_1" function="internal">
        <lane id=":1727196454_1_0" index="0" disallow="pedestrian tram rail_urban rail rail_electric rail_fast ship container cable_car subway aircraft wheelchair scooter drone" speed="20.83" length="0.27" shape="366821.24,5802528.24 366821.26,5802528.51"/>
    </edge>
    <edge id=":1974888054_0" function="internal">
        <lane id=":1974888054_0_0" index="0" disallow="pedestrian tram rail_urban rail rail_electric rail_fast ship container cable_car subway aircraft wheelchair scooter drone" speed="13.89" length="0.19" shape="365513.49,5803000.38 365513.45,5803000.34 365513.42,5803000.31 365513.39,5803000.29 365513.34,5803000.25"/>
    </edge>
    <edge id=":1974888054_1" function="internal">
        <lane id=":1974888054_1_0" index="0" disallow="pedestrian tram rail_urban rail rail_electric rail_fast ship container cable_car subway aircraft wheelchair scooter drone" speed="13.89" length="0.58" shape="365515.36,5802997.74 365515.78,5802998.15"/>
    </edge>
    <edge id=":2519027713_0" function="internal">
        <lane id=":2519027713_0_0" index="0" disallow="pedestrian tram rail_urban rail rail_electric rail_fast ship container cable_car subway aircraft wheelchair scooter drone" speed="16.66" length="0.29" shape="365784.65,5803367.02 365784.52,5803366.76"/>
    </edge>
    <edge id=":2519027713_1" function="internal">
        <lane id=":2519027713_1_0" index="0" disallow="pedestrian tram rail_urban rail rail_electric rail_fast ship container cable_car subway aircraft wheelchair scooter drone" speed="16.66" length="0.16" shape="365787.40,5803365.36 365787.47,5803365.50"/>
    </edge>
    <edge id=":2688917439_0" function="internal">
        <lane id=":2688917439_0_0" index="0" disallow="pedestrian tram rail_urban rail rail_electric rail_fast ship container cable_car subway aircraft wheelchair scooter drone" speed="22.22" length="8.80" shape="366857.16,5803069.84 366857.48,5803067.35 366858.46,5803065.73 366859.43,5803064.12 366859.74,5803061.63"/>
    </edge>
    <edge id=":2688917439_1" function="internal">
        <lane id=":2688917439_1_0" index="0" disallow="pedestrian tram rail_urban rail rail_electric rail_fast ship container cable_car subway aircraft wheelchair scooter drone" speed="22.22" length="8.82" shape="366866.12,5803061.12 366865.82,5803063.62 366864.84,5803065.24 366863.86,5803066.86 366863.55,5803069.36"/>
    </edge>
    <edge id=":2688917440_0" function="internal">
        <lane id=":2688917440_0_0" index="0" disallow="pedestrian tram rail_urban rail rail_electric rail_fast ship container cable_car subway aircraft wheelchair scooter drone" speed="22.22" length="7.87" shape="366854.63,5802990.48 366853.98,5802982.64"/>
    </edge>
    <edge id=":2688917440_1" function="internal">
        <lane id=":2688917440_1_0" index="0" disallow="pedestrian tram rail_urban rail rail_electric rail_fast ship container cable_car subway aircraft wheelchair scooter drone" speed="22.22" length="8.40" shape="366857.16,5802982.32 366857.90,5802984.74 366859.14,5802986.18 366860.35,5802987.63 366861.01,5802990.05"/>
        <lane id=":2688917440_1_1" index="1" disallow="pedestrian tram rail_urban rail rail_electric rail_fast ship container cable_car subway aircraft wheelchair scooter drone" speed="22.22" length="8.40" shape="366857.16,5802982.32 366857.82,5802990.27"/>
    </edge>
    <edge id=":279126875_0" function="internal">
        <lane id=":279126875_0_0" index="0" disallow="pedestrian tram rail_urban rail rail_electric rail_fast ship container cable_car subway aircraft wheelchair scooter drone" speed="3.65" length="4.67" shape="367355.72,5804273.19 367355.65,5804274.63 367355.17,5804275.38 367354.28,5804275.45 367352.98,5804274.83"/>
    </edge>
    <edge id=":285390482_0" function="internal">
        <lane id=":285390482_0_0" index="0" disallow="pedestrian tram rail_urban rail rail_electric rail_fast ship container cable_car subway aircraft wheelchair scooter drone" speed="16.66" length="0.31" shape="365719.71,5803261.47 365719.53,5803261.21"/>
    </edge>
    <edge id=":285390482_1" function="internal">
        <lane id=":285390482_1_0" index="0" disallow="pedestrian tram rail_urban rail rail_electric rail_fast ship container cable_car subway aircraft wheelchair scooter drone" speed="16.66" length="0.28" shape="365722.21,5803259.45 365722.36,5803259.68"/>
    </edge>
    <edge id=":285402334_0" function="internal">
        <lane id=":285402334_0_0" index="0" disallow="pedestrian tram rail_urban rail rail_electric rail_fast ship container cable_car subway aircraft wheelchair scooter drone" speed="3.65" length="4.67" shape="366854.86,5801575.79 366855.89,5801574.77 366856.75,5801574.54 366857.46,5801575.10 366858.00,5801576.43"/>
    </edge>
    <edge id=":30137584_0" function="internal">
        <lane id=":30137584_0_0" index="0" disallow="pedestrian tram rail_urban rail rail_electric rail_fast ship container cable_car subway aircraft wheelchair scooter drone" speed="16.66" length="0.56" shape="365299.73,5802813.81 365299.63,5802813.68 365299.55,5802813.59 365299.49,5802813.50 365299.40,5802813.36"/>
    </edge>
    <edge id=":30137584_1" function="internal">
        <lane id=":30137584_1_0" index="0" disallow="pedestrian tram rail_urban rail rail_electric rail_fast ship container cable_car subway aircraft wheelchair scooter drone" speed="13.89" length="0.19" shape="365302.06,5802811.59 365302.09,5802811.63 365302.11,5802811.66 365302.13,5802811.69 365302.17,5802811.73"/>
    </edge>
    <edge id=":3068137132_0" function="internal">
        <lane id=":3068137132_0_0" index="0" disallow="pedestrian tram rail_urban rail rail_electric rail_fast ship container cable_car subway aircraft wheelchair scooter drone" speed="16.66" length="0.24" shape="365553.74,5803041.60 365553.57,5803041.43"/>
    </edge>
    <edge id=":3068137132_1" function="internal">
        <lane id=":3068137132_1_0" index="0" disallow="pedestrian tram rail_urban rail rail_electric rail_fast ship container cable_car subway aircraft wheelchair scooter drone" speed="16.66" length="0.31" shape="365555.86,5803039.19 365556.07,5803039.42"/>
    </edge>
    <edge id=":315901147_0" function="internal">
        <lane id=":315901147_0_0" index="0" disallow="pedestrian tram rail_urban rail rail_electric rail_fast ship container cable_car subway aircraft wheelchair scooter drone" speed="9.28" length="3.81" shape="365320.96,5802834.89 365320.55,5802833.84 365320.17,5802833.16 365319.65,5802832.58 365318.80,5802831.84"/>
    </edge>
    <edge id=":315901147_1" function="internal">
        <lane id=":315901147_1_0" index="0" disallow="tram rail_urban rail rail_electric rail_fast ship container cable_car subway aircraft wheelchair scooter drone" speed="5.02" length="2.64" shape="365320.96,5802834.89 365320.57,5802832.94 365320.93,5802832.40"/>
    </edge>
    <edge id=":315901147_4" function="internal">
        <lane id=":315901147_4_0" index="0" disallow="tram rail_urban rail rail_electric rail_fast ship container cable_car subway aircraft wheelchair scooter drone" speed="5.02" length="5.16" shape="365320.93,5802832.40 365321.24,5802831.93 365322.94,5802831.86 365325.70,5802832.74"/>
    </edge>
    <edge id=":315901147_2" function="internal">
        <lane id=":315901147_2_0" index="0" disallow="pedestrian tram rail_urban rail rail_electric rail_fast ship container cable_car subway aircraft wheelchair scooter drone" speed="13.89" length="5.95" shape="365320.84,5802829.38 365322.17,5802830.54 365323.10,5802831.35 365324.11,5802832.01 365325.70,5802832.74"/>
    </edge>
    <edge id=":315901147_3" function="internal">
        <lane id=":315901147_3_0" index="0" disallow="pedestrian tram rail_urban rail rail_electric rail_fast ship container cable_car subway aircraft wheelchair scooter drone" speed="3.65" length="1.44" shape="365320.84,5802829.38 365321.25,5802830.76"/>
    </edge>
    <edge id=":315901147_5" function="internal">
        <lane id=":315901147_5_0" index="0" disallow="pedestrian tram rail_urban rail rail_electric rail_fast ship container cable_car subway aircraft wheelchair scooter drone" speed="3.65" length="3.23" shape="365321.25,5802830.76 365321.05,5802831.64 365320.23,5802832.00 365318.80,5802831.84"/>
    </edge>
    <edge id=":5848005702_0" function="internal">
        <lane id=":5848005702_0_0" index="0" disallow="pedestrian tram rail_urban rail rail_electric rail_fast ship container cable_car subway aircraft wheelchair scooter drone" speed="13.89" length="0.30" shape="365350.73,5802852.27 365350.96,5802852.47"/>
    </edge>
    <edge id=":6083603595_0" function="internal">
        <lane id=":6083603595_0_0" index="0" disallow="pedestrian tram rail_urban rail rail_electric rail_fast ship container cable_car subway aircraft wheelchair scooter drone" speed="19.44" length="0.64" shape="365272.35,5802741.05 365272.31,5802740.87 365272.29,5802740.74 365272.28,5802740.61 365272.27,5802740.42"/>
    </edge>
    <edge id=":6083603595_1" function="internal">
        <lane id=":6083603595_1_0" index="0" disallow="pedestrian tram rail_urban rail rail_electric rail_fast ship container cable_car subway aircraft wheelchair scooter drone" speed="16.66" length="0.21" shape="365275.47,5802740.25 365275.47,5802740.32 365275.47,5802740.36 365275.48,5802740.40 365275.49,5802740.47"/>
    </edge>

    <edge id="-10649206#5" from="285402334" to="1727196454" priority="12" type="highway.primary" shape="366856.43,5801576.11 366853.94,5801588.14 366797.62,5801859.39 366787.07,5801910.19 366780.48,5801954.02 366777.16,5801993.78 366786.14,5802103.47 366802.44,5802302.61 366804.89,5802332.51 366805.43,5802338.45 366806.44,5802349.61 366807.80,5802368.11 366813.53,5802443.69 366815.50,5802465.51 366819.65,5802528.49">
        <lane id="-10649206#5_0" index="0" disallow="pedestrian tram rail_urban rail rail_electric rail_fast ship container cable_car subway aircraft wheelchair scooter drone" speed="19.44" length="961.25" shape="366858.00,5801576.43 366855.51,5801588.46 366799.19,5801859.72 366788.65,5801910.47 366782.07,5801954.21 366778.77,5801993.78 366787.73,5802103.34 366804.03,5802302.48 366806.48,5802332.38 366807.02,5802338.31 366808.03,5802349.48 366809.40,5802367.99 366815.12,5802443.56 366817.10,5802465.39 366821.24,5802528.24"/>
        <param key="ref" value="B 2"/>
    </edge>
    <edge id="-1097812943#1" from="3068137132" to="1974888054" priority="10" type="highway.tertiary" shape="365554.81,5803040.41 365540.27,5803025.53 365514.50,5802999.13">
        <lane id="-1097812943#1_0" index="0" disallow="pedestrian tram rail_urban rail rail_electric rail_fast ship container cable_car subway aircraft wheelchair scooter drone" speed="13.89" length="57.37" shape="365553.57,5803041.43 365539.13,5803026.65 365513.49,5803000.38"/>
    </edge>
    <edge id="-1176584962" from="10931525288" to="2688917439" priority="12" type="highway.primary" shape="366867.96,5803149.93 366864.66,5803105.35 366861.65,5803065.49">
        <lane id="-1176584962_0" index="0" disallow="pedestrian tram rail_urban rail rail_electric rail_fast ship container cable_car subway aircraft wheelchair scooter drone" speed="22.22" length="76.68" shape="366862.88,5803146.30 366859.87,5803105.71 366857.16,5803069.84"/>
        <lane id="-1176584962_1" index="1" disallow="pedestrian tram rail_urban rail rail_electric rail_fast ship container cable_car subway aircraft wheelchair scooter drone" speed="22.22" length="76.68" shape="366866.07,5803146.06 366863.06,5803105.47 366860.36,5803069.60"/>
        <param key="ref" value="B 2"/>
    </edge>
    <edge id="-1176584964" from="10931525286" to="10931525288" priority="12" type="highway.primary">
        <lane id="-1176584964_0" index="0" disallow="pedestrian tram rail_urban rail rail_electric rail_fast ship container cable_car subway aircraft wheelchair scooter drone" speed="22.22" length="9.62" shape="366867.21,5803163.62 366866.61,5803154.03"/>
        <param key="ref" value="B 2"/>
    </edge>
    <edge id="-160685701#4" from="279126875" to="10931525286" priority="12" type="highway.primary" shape="367354.35,5804274.01 367319.28,5804215.46 367197.44,5804014.96 367168.04,5803965.48 367150.24,5803937.02 367110.50,5803872.74 367098.35,5803853.39 367068.60,5803803.69 367015.84,5803720.17 366995.86,5803686.76 366921.40,5803554.14 366905.20,5803517.25 366892.84,5803470.92 366888.80,5803429.61 366875.27,5803247.90 366869.05,5803167.50">
        <lane id="-160685701#4_0" index="0" disallow="pedestrian tram rail_urban rail rail_electric rail_fast ship container cable_car subway aircraft wheelchair scooter drone" speed="22.22" length="1230.23" shape="367350.23,5804276.48 367315.17,5804217.94 367193.33,5804017.43 367163.94,5803967.98 367146.16,5803939.55 367106.43,5803875.28 367094.26,5803855.90 367064.51,5803806.20 367011.75,5803722.68 366991.71,5803689.17 366917.10,5803556.29 366900.66,5803518.84 366888.10,5803471.78 366884.02,5803430.02 366870.48,5803248.26 366864.57,5803171.85"/>
        <lane id="-160685701#4_1" index="1" disallow="pedestrian tram rail_urban rail rail_electric rail_fast ship container cable_car subway aircraft wheelchair scooter drone" speed="22.22" length="1230.23" shape="367352.98,5804274.83 367317.91,5804216.29 367196.07,5804015.78 367166.67,5803966.31 367148.88,5803937.86 367109.14,5803873.59 367096.99,5803854.23 367067.24,5803804.53 367014.48,5803721.01 366994.48,5803687.56 366919.97,5803554.86 366903.69,5803517.78 366891.26,5803471.21 366887.21,5803429.75 366873.67,5803248.02 366867.76,5803171.61"/>
        <param key="ref" value="B 2"/>
    </edge>
    <edge id="-25609061" from="2688917440" to="2688917439" priority="12" type="highway.primary" shape="366855.96,5802986.41 366859.39,5803037.64 366860.22,5803047.37 366861.65,5803065.49">
        <lane id="-25609061_0" index="0" disallow="pedestrian tram rail_urban rail rail_electric rail_fast ship container cable_car subway aircraft wheelchair scooter drone" speed="22.22" length="71.27" shape="366861.01,5802990.05 366864.18,5803037.28 366865.00,5803046.98 366866.12,5803061.12"/>
        <lane id="-25609061_1" index="1" disallow="pedestrian tram rail_urban rail rail_electric rail_fast ship container cable_car subway aircraft wheelchair scooter drone" speed="22.22" length="71.27" shape="366857.82,5802990.27 366860.99,5803037.52 366861.81,5803047.24 366862.93,5803061.37"/>
        <param key="ref" value="B 2"/>
    </edge>
    <edge id="-27689740#1" from="1727196454" to="2688917440" priority="12" type="highway.primary" shape="366819.65,5802528.49 366832.45,5802692.12 366847.49,5802901.27 366855.96,5802986.41">
        <lane id="-27689740#1_0" index="0" disallow="pedestrian tram rail_urban rail rail_electric rail_fast ship container cable_car subway aircraft wheelchair scooter drone" speed="22.22" length="455.25" shape="366821.26,5802528.51 366834.05,5802692.00 366849.08,5802901.13 366857.16,5802982.32"/>
        <param key="ref" value="B 2"/>
    </edge>
    <edge id="-34964104#1" from="285390482" to="3068137132" priority="10" type="highway.tertiary" shape="365720.95,5803260.45 365707.90,5803240.61 365630.76,5803119.73 365580.48,5803067.84 365554.81,5803040.41">
        <lane id="-34964104#1_0" index="0" disallow="pedestrian tram rail_urban rail rail_electric rail_fast ship container cable_car subway aircraft wheelchair scooter drone" speed="19.44" length="276.41" shape="365719.53,5803261.21 365706.56,5803241.48 365629.50,5803120.73 365579.32,5803068.94 365553.74,5803041.60"/>
    </edge>
    <edge id="-39486748" from="6083603595" to="10051996723" priority="10" type="highway.tertiary" shape="365273.88,5802740.55 365269.76,5802660.43 365257.31,5802616.63 365247.46,5802590.55 365228.02,5802553.71 365208.14,5802525.57 365187.77,5802501.88 365131.15,5802441.53 365096.61,5802400.11 365077.67,5802372.03 365057.30,5802328.43 365049.20,5802315.19 365038.67,5802303.47 364988.23,5802257.69 364949.44,5802218.24 364924.49,5802183.37 364905.68,5802156.21 364886.43,5802134.18 364855.32,5802111.16 364826.47,5802092.97 364821.00,5802089.53">
        <lane id="-39486748_0" index="0" disallow="pedestrian tram rail_urban rail rail_electric rail_fast ship container cable_car subway aircraft wheelchair scooter drone" speed="19.44" length="817.08" shape="365272.27,5802740.42 365268.17,5802660.69 365255.79,5802617.13 365246.00,5802591.21 365226.65,5802554.55 365206.88,5802526.56 365186.58,5802502.95 365129.95,5802442.59 365095.33,5802401.07 365076.27,5802372.82 365055.89,5802329.19 365047.91,5802316.15 365037.53,5802304.60 364987.12,5802258.84 364948.21,5802219.27 364923.18,5802184.29 364904.42,5802157.19 364885.34,5802135.36 364854.42,5802112.48 364825.62,5802094.32 364820.15,5802090.88"/>
    </edge>
    <edge id="-538976578#2" from="1316156209" to="2519027713" priority="10" type="highway.tertiary" shape="366397.23,5804395.97 366391.19,5804372.37 366384.57,5804351.60 366378.25,5804333.28 366368.15,5804310.05 366359.20,5804293.08 366350.85,5804278.85 366335.72,5804257.31 366307.71,5804226.78 366284.01,5804204.22 366258.54,5804182.32 366202.53,5804132.33 366169.24,5804102.08 366142.98,5804082.50 366105.00,5804059.24 366082.46,5804046.42 366050.08,5804025.25 365984.20,5803970.15 365936.18,5803931.36 365923.52,5803917.97 365912.70,5803903.88 365902.88,5803887.82 365893.09,5803868.49 365884.78,5803841.27 365879.05,5803813.96 365876.06,5803784.07 365874.72,5803761.10 365872.73,5803698.72 365871.16,5803674.42 365864.66,5803633.95 365853.76,5803570.98 365850.93,5803556.76 365848.45,5803544.03 365847.99,5803541.47 365843.53,5803522.82 365837.36,5803498.56 365829.90,5803473.39 365820.09,5803444.21 365812.10,5803423.17 365791.10,5803375.65 365786.01,5803366.16">
        <lane id="-538976578#2_0" index="0" disallow="pedestrian tram rail_urban rail rail_electric rail_fast ship container cable_car subway aircraft wheelchair scooter drone" speed="19.44" length="1264.00" shape="366395.68,5804396.37 366389.65,5804372.81 366383.05,5804352.10 366376.76,5804333.86 366366.71,5804310.74 366357.80,5804293.86 366349.50,5804279.72 366334.47,5804258.31 366306.57,5804227.90 366282.94,5804205.41 366257.49,5804183.52 366201.46,5804133.52 366168.22,5804103.32 366142.08,5804083.83 366104.19,5804060.62 366081.63,5804047.79 366049.13,5804026.54 365983.18,5803971.39 365935.09,5803932.54 365922.30,5803919.01 365911.38,5803904.79 365901.48,5803888.60 365891.60,5803869.09 365883.23,5803841.67 365877.47,5803814.20 365874.46,5803784.20 365873.12,5803761.17 365871.13,5803698.80 365869.57,5803674.60 365863.08,5803634.21 365852.19,5803571.27 365849.36,5803557.07 365846.88,5803544.33 365846.42,5803541.80 365841.98,5803523.20 365835.82,5803498.98 365828.37,5803473.87 365818.58,5803444.75 365810.62,5803423.78 365789.66,5803376.35 365784.65,5803367.02"/>
    </edge>
    <edge id="-618734335" from="315901147" to="30137584" priority="10" type="highway.tertiary" shape="365319.14,5802830.05 365307.31,5802820.23 365300.83,5802812.63">
        <lane id="-618734335_0" index="0" disallow="pedestrian tram rail_urban rail rail_electric rail_fast ship container cable_car subway aircraft wheelchair scooter drone" speed="13.89" length="26.33" shape="365318.80,5802831.84 365306.18,5802821.37 365299.73,5802813.81"/>
    </edge>
    <edge id="-647880055#1" from="2519027713" to="285390482" priority="10" type="highway.tertiary" shape="365786.01,5803366.16 365777.04,5803347.77 365754.77,5803310.65 365720.95,5803260.45">
        <lane id="-647880055#1_0" index="0" disallow="pedestrian tram rail_urban rail rail_electric rail_fast ship container cable_car subway aircraft wheelchair scooter drone" speed="13.89" length="123.80" shape="365784.52,5803366.76 365775.63,5803348.53 365753.42,5803311.51 365719.71,5803261.47"/>
    </edge>
    <edge id="-647880058" from="30137584" to="6083603595" priority="10" type="highway.tertiary" shape="365300.83,5802812.63 365287.78,5802793.10 365277.81,5802761.59 365273.88,5802740.55">
        <lane id="-647880058_0" index="0" disallow="pedestrian tram rail_urban rail rail_electric rail_fast ship container cable_car subway aircraft wheelchair scooter drone" speed="19.44" length="78.19" shape="365299.40,5802813.36 365286.32,5802793.80 365276.26,5802761.98 365272.35,5802741.05"/>
    </edge>
    <edge id="1097812943#0" from="1974888054" to="3068137132" priority="10" type="highway.tertiary" shape="365514.50,5802999.13 365540.27,5803025.53 365554.81,5803040.41">
        <lane id="1097812943#0_0" index="0" disallow="pedestrian tram rail_urban rail rail_electric rail_fast ship container cable_car subway aircraft wheelchair scooter drone" speed="13.89" length="57.37" shape="365515.78,5802998.15 365541.41,5803024.41 365555.86,5803039.19"/>
    </edge>
    <edge id="1176584962" from="2688917439" to="10931525288" priority="12" type="highway.primary" shape="366861.65,5803065.49 366864.66,5803105.35 366867.96,5803149.93">
        <lane id="1176584962_0" index="0" disallow="pedestrian tram rail_urban rail rail_electric rail_fast ship container cable_car subway aircraft wheelchair scooter drone" speed="22.22" length="76.68" shape="366863.55,5803069.36 366866.26,5803105.23 366869.26,5803145.83"/>
        <param key="ref" value="B 2"/>
    </edge>
    <edge id="1176584963" from="10931525286" to="279126875" priority="12" type="highway.primary" shape="366869.05,5803167.50 366875.27,5803247.90 366888.80,5803429.61 366892.84,5803470.92 366905.20,5803517.25 366921.40,5803554.14 366995.86,5803686.76 367015.84,5803720.17 367068.60,5803803.69 367098.35,5803853.39 367110.50,5803872.74 367150.24,5803937.02 367168.04,5803965.48 367197.44,5804014.96 367319.28,5804215.46 367354.35,5804274.01">
        <lane id="1176584963_0" index="0" disallow="pedestrian tram rail_urban rail rail_electric rail_fast ship container cable_car subway aircraft wheelchair scooter drone" speed="27.78" length="1228.01" shape="366870.95,5803171.36 366876.87,5803247.78 366890.39,5803429.47 366894.42,5803470.63 366906.71,5803516.72 366922.83,5803553.42 366997.24,5803685.96 367017.20,5803719.33 367069.96,5803802.85 367099.71,5803852.55 367111.86,5803871.89 367151.60,5803936.18 367169.41,5803964.65 367198.81,5804014.14 367320.65,5804214.63 367355.72,5804273.19"/>
        <param key="ref" value="B 2"/>
    </edge>
    <edge id="1176584964" from="10931525288" to="10931525286" priority="12" type="highway.primary">
        <lane id="1176584964_0" index="0" disallow="pedestrian tram rail_urban rail rail_electric rail_fast ship container cable_car subway aircraft wheelchair scooter drone" speed="22.22" length="9.62" shape="366869.80,5803153.83 366870.40,5803163.43"/>
        <param key="ref" value="B 2"/>
    </edge>
    <edge id="160685704#0" from="1727196454" to="285402334" priority="12" type="highway.primary" shape="366819.65,5802528.49 366815.50,5802465.51 366813.53,5802443.69 366807.80,5802368.11 366806.44,5802349.61 366805.43,5802338.45 366804.89,5802332.51 366802.44,5802302.61 366786.14,5802103.47 366777.16,5801993.78 366780.48,5801954.02 366787.07,5801910.19 366797.62,5801859.39 366853.94,5801588.14 366856.43,5801576.11">
        <lane id="160685704#0_0" index="0" disallow="pedestrian tram rail_urban rail rail_electric rail_fast ship container cable_car subway aircraft wheelchair scooter drone" speed="19.44" length="962.12" shape="366818.04,5802528.45 366813.90,5802465.63 366811.94,5802443.82 366806.20,5802368.23 366804.85,5802349.74 366803.84,5802338.59 366803.30,5802332.65 366800.85,5802302.74 366784.55,5802103.60 366775.55,5801993.78 366778.89,5801953.83 366785.49,5801909.91 366796.05,5801859.06 366852.37,5801587.81 366854.86,5801575.79"/>
        <param key="ref" value="B 2"/>
    </edge>
    <edge id="25609061" from="2688917439" to="2688917440" priority="12" type="highway.primary" shape="366861.65,5803065.49 366860.22,5803047.37 366859.39,5803037.64 366855.96,5802986.41">
        <lane id="25609061_0" index="0" disallow="pedestrian tram rail_urban rail rail_electric rail_fast ship container cable_car subway aircraft wheelchair scooter drone" speed="22.22" length="71.33" shape="366859.74,5803061.63 366858.63,5803047.50 366857.79,5803037.76 366854.63,5802990.48"/>
        <param key="ref" value="B 2"/>
    </edge>
    <edge id="27689740#0" from="2688917440" to="1727196454" priority="12" type="highway.primary" shape="366855.96,5802986.41 366847.49,5802901.27 366832.45,5802692.12 366819.65,5802528.49">
        <lane id="27689740#0_0" index="0" disallow="pedestrian tram rail_urban rail rail_electric rail_fast ship container cable_car subway aircraft wheelchair scooter drone" speed="22.22" length="455.32" shape="366853.98,5802982.64 366845.90,5802901.41 366830.85,5802692.24 366818.07,5802528.76"/>
        <param key="ref" value="B 2"/>
    </edge>
    <edge id="34964104#0" from="3068137132" to="285390482" priority="10" type="highway.tertiary" shape="365554.81,5803040.41 365580.48,5803067.84 365630.76,5803119.73 365707.90,5803240.61 365720.95,5803260.45">