<?xml version="1.0" encoding="UTF-8"?>

<!-- generated on 2025-11-14 17:26:11 by Eclipse SUMO netconvert Version 1.24.0
<netconvertConfiguration xmlns:xsi="http://www.w3.org/2001/XMLSchema-instance" xsi:noNamespaceSchemaLocation="http://sumo.dlr.de/xsd/netconvertConfiguration.xsd">

    <input>
        <osm-files value="map.osm"/>
    </input>

    <output>
        <output-file value="sp_highway.net.xml"/>
    </output>

    <projection>
        <proj.utm value="true"/>
    </projection>

    <processing>
        <geometry.remove value="true"/>
    </processing>

    <junctions>
        <junctions.corner-detail value="5"/>
    </junctions>

</netconvertConfiguration>
-->

<net version="1.20" junctionCornerDetail="5" limitTurnSpeed="5.50" xmlns:xsi="http://www.w3.org/2001/XMLSchema-instance" xsi:noNamespaceSchemaLocation="http://sumo.dlr.de/xsd/net_file.xsd">

    <location netOffset="-299293.53,2550290.10" convBoundary="0.00,0.00,7023.49,5567.34" origBoundary="-46.958673,-23.049467,-46.889685,-22.999591" projParameter="+proj=utm +zone=23 +ellps=WGS84 +datum=WGS84 +units=m +no_defs"/>

    <type id="highway.footway" priority="1" numLanes="1" speed="2.78" allow="pedestrian" oneway="1" width="2.00"/>
    <type id="highway.path" priority="1" numLanes="1" speed="5.56" allow="pedestrian bicycle" oneway="0" width="2.00"/>
    <type id="highway.primary" priority="12" numLanes="2" speed="27.78" disallow="tram rail_urban rail rail_electric rail_fast ship container cable_car subway aircraft wheelchair scooter drone" oneway="0"/>
    <type id="highway.residential" priority="3" numLanes="1" speed="13.89" disallow="tram rail_urban rail rail_electric rail_fast ship container cable_car subway aircraft wheelchair scooter drone" oneway="0"/>
    <type id="highway.service" priority="1" numLanes="1" speed="5.56" allow="pedestrian delivery bicycle" oneway="0"/>
    <type id="highway.track" priority="1" numLanes="1" speed="5.56" allow="pedestrian motorcycle moped bicycle" oneway="0"/>
    <type id="highway.unclassified" priority="4" numLanes="1" speed="13.89" disallow="tram rail_urban rail rail_electric rail_fast ship container cable_car subway aircraft wheelchair scooter drone" oneway="0"/>

    <edge id=":12199693142_0" function="internal">
        <lane id=":12199693142_0_0" index="0" disallow="tram rail_urban rail rail_electric rail_fast ship container cable_car subway aircraft wheelchair scooter drone" speed="3.65" length="4.67" shape="-1.01,1789.68 -1.44,1788.30 -1.24,1787.43 -0.43,1787.06 1.01,1787.19"/>
    </edge>
    <edge id=":12199693153_0" function="internal">
        <lane id=":12199693153_0_0" index="0" disallow="tram rail_urban rail rail_electric rail_fast ship container cable_car subway aircraft wheelchair scooter drone" speed="13.89" length="5.05" shape="4.00,1793.74 0.08,1790.56"/>
    </edge>
    <edge id=":12199693153_1" function="internal">
        <lane id=":12199693153_1_0" index="0" disallow="tram rail_urban rail rail_electric rail_fast ship container cable_car subway aircraft wheelchair scooter drone" speed="13.89" length="5.05" shape="2.10,1788.08 6.02,1791.26"/>
    </edge>
    <edge id=":3137529938_0" function="internal">
        <lane id=":3137529938_0_0" index="0" disallow="tram rail_urban rail rail_electric rail_fast ship container cable_car subway aircraft wheelchair scooter drone" speed="3.65" length="4.67" shape="189.26,2807.34 188.26,2806.30 188.04,2805.43 188.60,2804.74 189.95,2804.21"/>
    </edge>
    <edge id=":3137534409_0" function="internal">
        <lane id=":3137534409_0_0" index="0" disallow="tram rail_urban rail rail_electric rail_fast ship container cable_car subway aircraft wheelchair scooter drone" speed="5.92" length="9.10" shape="805.91,3399.40 803.53,3398.29 801.61,3398.36 800.15,3399.61 799.15,3402.04"/>
    </edge>
    <edge id=":3137534409_1" function="internal">
        <lane id=":3137534409_1_0" index="0" disallow="tram rail_urban rail rail_electric rail_fast ship container cable_car subway aircraft wheelchair scooter drone" speed="16.67" length="11.36" shape="805.91,3399.40 796.41,3393.07"/>
        <lane id=":3137534409_1_1" index="1" disallow="tram rail_urban rail rail_electric rail_fast ship container cable_car subway aircraft wheelchair scooter drone" speed="16.67" length="11.36" shape="807.66,3396.72 798.25,3390.46"/>
    </edge>
    <edge id=":3137534409_3" function="internal">
        <lane id=":3137534409_3_0" index="0" disallow="tram rail_urban rail rail_electric rail_fast ship container cable_car subway aircraft wheelchair scooter drone" speed="3.65" length="1.44" shape="807.66,3396.72 807.09,3395.39"/>
    </edge>
    <edge id=":3137534409_8" function="internal">
        <lane id=":3137534409_8_0" index="0" disallow="tram rail_urban rail rail_electric rail_fast ship container cable_car subway aircraft wheelchair scooter drone" speed="3.65" length="3.23" shape="807.09,3395.39 807.19,3394.50 807.96,3394.05 809.40,3394.03"/>
    </edge>
    <edge id=":3137534409_4" function="internal">
        <lane id=":3137534409_4_0" index="0" disallow="tram rail_urban rail rail_electric rail_fast ship container cable_car subway aircraft wheelchair scooter drone" speed="16.67" length="11.12" shape="801.93,3385.22 811.14,3391.35"/>
        <lane id=":3137534409_4_1" index="1" disallow="tram rail_urban rail rail_electric rail_fast ship container cable_car subway aircraft wheelchair scooter drone" speed="16.67" length="11.12" shape="800.09,3387.84 809.40,3394.03"/>
    </edge>
    <edge id=":3137534409_6" function="internal">
        <lane id=":3137534409_6_0" index="0" disallow="tram rail_urban rail rail_electric rail_fast ship container cable_car subway aircraft wheelchair scooter drone" speed="9.45" length="1.68" shape="800.09,3387.84 800.88,3389.33"/>
    </edge>
    <edge id=":3137534409_7" function="internal">
        <lane id=":3137534409_7_0" index="0" disallow="tram rail_urban rail rail_electric rail_fast ship container cable_car subway aircraft wheelchair scooter drone" speed="3.65" length="1.44" shape="800.09,3387.84 800.61,3389.18"/>
    </edge>
    <edge id=":3137534409_9" function="internal">
        <lane id=":3137534409_9_0" index="0" disallow="tram rail_urban rail rail_electric rail_fast ship container cable_car subway aircraft wheelchair scooter drone" speed="9.45" length="12.90" shape="800.88,3389.33 800.99,3392.19 800.41,3396.43 799.15,3402.04"/>
    </edge>
    <edge id=":3137534409_10" function="internal">
        <lane id=":3137534409_10_0" index="0" disallow="tram rail_urban rail rail_electric rail_fast ship container cable_car subway aircraft wheelchair scooter drone" speed="3.65" length="3.23" shape="800.61,3389.18 800.48,3390.07 799.69,3390.49 798.25,3390.46"/>
    </edge>
    <edge id=":3137534417_0" function="internal">
        <lane id=":3137534417_0_0" index="0" disallow="tram rail_urban rail rail_electric rail_fast ship container cable_car subway aircraft wheelchair scooter drone" speed="16.67" length="8.63" shape="1071.79,3460.88 1063.29,3460.97"/>
        <lane id=":3137534417_0_1" index="1" disallow="tram rail_urban rail rail_electric rail_fast ship container cable_car subway aircraft wheelchair scooter drone" speed="16.67" length="8.63" shape="1071.88,3457.69 1063.12,3457.77"/>
    </edge>
    <edge id=":3137534417_2" function="internal">
        <lane id=":3137534417_2_0" index="0" allow="pedestrian delivery bicycle" speed="7.62" length="2.75" shape="1071.88,3457.69 1069.21,3457.04"/>
    </edge>
    <edge id=":3137534417_9" function="internal">
        <lane id=":3137534417_9_0" index="0" allow="pedestrian delivery bicycle" speed="7.62" length="10.22" shape="1069.21,3457.04 1069.08,3457.01 1067.15,3455.16 1066.08,3452.13 1065.87,3447.93"/>
    </edge>
    <edge id=":3137534417_3" function="internal">
        <lane id=":3137534417_3_0" index="0" allow="pedestrian delivery bicycle" speed="5.02" length="5.02" shape="1069.06,3448.08 1069.20,3449.45 1069.74,3450.44 1070.69,3451.06 1072.05,3451.29"/>
    </edge>
    <edge id=":3137534417_4" function="internal">
        <lane id=":3137534417_4_0" index="0" allow="pedestrian delivery bicycle" speed="7.83" length="12.51" shape="1069.06,3448.08 1068.53,3452.21 1067.36,3455.20 1065.56,3457.05 1063.12,3457.77"/>
    </edge>
    <edge id=":3137534417_5" function="internal">
        <lane id=":3137534417_5_0" index="0" allow="pedestrian delivery bicycle" speed="3.65" length="4.67" shape="1069.06,3448.08 1068.21,3449.24 1067.39,3449.60 1066.61,3449.17 1065.87,3447.93"/>
    </edge>
    <edge id=":3137534417_6" function="internal">
        <lane id=":3137534417_6_0" index="0" allow="pedestrian delivery bicycle" speed="5.28" length="5.17" shape="1062.77,3451.38 1064.07,3451.11 1065.02,3450.44 1065.62,3449.38 1065.87,3447.93"/>
    </edge>
    <edge id=":3137534417_7" function="internal">
        <lane id=":3137534417_7_0" index="0" disallow="tram rail_urban rail rail_electric rail_fast ship container cable_car subway aircraft wheelchair scooter drone" speed="16.67" length="9.15" shape="1062.77,3451.38 1072.05,3451.29"/>
        <lane id=":3137534417_7_1" index="1" disallow="tram rail_urban rail rail_electric rail_fast ship container cable_car subway aircraft wheelchair scooter drone" speed="16.67" length="9.15" shape="1062.94,3454.58 1071.96,3454.49"/>
    </edge>
    <edge id=":3137535029_0" function="internal">
        <lane id=":3137535029_0_0" index="0" disallow="tram rail_urban rail rail_electric rail_fast ship container cable_car subway aircraft wheelchair scooter drone" speed="16.67" length="10.02" shape="1547.66,3512.23 1537.55,3511.74"/>
        <lane id=":3137535029_0_1" index="1" disallow="tram rail_urban rail rail_electric rail_fast ship container cable_car subway aircraft wheelchair scooter drone" speed="16.67" length="10.02" shape="1547.67,3509.03 1537.76,3508.54"/>
    </edge>
    <edge id=":3137535029_2" function="internal">
        <lane id=":3137535029_2_0" index="0" disallow="tram rail_urban rail rail_electric rail_fast ship container cable_car subway aircraft wheelchair scooter drone" speed="3.65" length="1.44" shape="1547.67,3509.03 1546.48,3508.22"/>
    </edge>
    <edge id=":3137535029_8" function="internal">
        <lane id=":3137535029_8_0" index="0" disallow="tram rail_urban rail rail_electric rail_fast ship container cable_car subway aircraft wheelchair scooter drone" speed="3.65" length="3.23" shape="1546.48,3508.22 1546.08,3507.42 1546.48,3506.62 1547.69,3505.83"/>
    </edge>
    <edge id=":3137535029_3" function="internal">
        <lane id=":3137535029_3_0" index="0" disallow="tram rail_urban rail rail_electric rail_fast ship container cable_car subway aircraft wheelchair scooter drone" speed="7.48" length="8.37" shape="1541.63,3497.57 1542.83,3499.78 1544.24,3501.36 1545.87,3502.31 1547.70,3502.63"/>
    </edge>
    <edge id=":3137535029_4" function="internal">
        <lane id=":3137535029_4_0" index="0" disallow="tram rail_urban rail rail_electric rail_fast ship container cable_car subway aircraft wheelchair scooter drone" speed="7.13" length="15.10" shape="1541.63,3497.57 1543.28,3502.59 1543.18,3506.10 1541.34,3508.08 1537.76,3508.54"/>
    </edge>
    <edge id=":3137535029_5" function="internal">
        <lane id=":3137535029_5_0" index="0" disallow="tram rail_urban rail rail_electric rail_fast ship container cable_car subway aircraft wheelchair scooter drone" speed="16.67" length="9.62" shape="1538.19,3502.16 1547.70,3502.63"/>
        <lane id=":3137535029_5_1" index="1" disallow="tram rail_urban rail rail_electric rail_fast ship container cable_car subway aircraft wheelchair scooter drone" speed="16.67" length="9.62" shape="1537.98,3505.35 1547.69,3505.83"/>
    </edge>
    <edge id=":3137535029_7" function="internal">
        <lane id=":3137535029_7_0" index="0" disallow="tram rail_urban rail rail_electric rail_fast ship container cable_car subway aircraft wheelchair scooter drone" speed="3.65" length="1.44" shape="1537.98,3505.35 1539.12,3506.23"/>
    </edge>
    <edge id=":3137535029_9" function="internal">
        <lane id=":3137535029_9_0" index="0" disallow="tram rail_urban rail rail_electric rail_fast ship container cable_car subway aircraft wheelchair scooter drone" speed="3.65" length="3.23" shape="1539.12,3506.23 1539.47,3507.05 1539.01,3507.83 1537.76,3508.54"/>
    </edge>
    <edge id=":3137535040_0" function="internal">
        <lane id=":3137535040_0_0" index="0" disallow="tram rail_urban rail rail_electric rail_fast ship container cable_car subway aircraft wheelchair scooter drone" speed="6.49" length="9.03" shape="2130.57,3324.59 2129.34,3322.44 2127.71,3321.21 2125.70,3320.89 2123.30,3321.49"/>
    </edge>
    <edge id=":3137535040_1" function="internal">
        <lane id=":3137535040_1_0" index="0" disallow="tram rail_urban rail rail_electric rail_fast ship container cable_car subway aircraft wheelchair scooter drone" speed="8.80" length="16.73" shape="2130.57,3324.59 2129.12,3319.51 2129.17,3315.39 2130.73,3312.21 2133.80,3309.99"/>
    </edge>
    <edge id=":3137535040_2" function="internal">
        <lane id=":3137535040_2_0" index="0" disallow="tram rail_urban rail rail_electric rail_fast ship container cable_car subway aircraft wheelchair scooter drone" speed="3.65" length="4.67" shape="2130.57,3324.59 2130.87,3323.18 2131.47,3322.51 2132.36,3322.59 2133.54,3323.41"/>
    </edge>
    <edge id=":3137535040_3" function="internal">
        <lane id=":3137535040_3_0" index="0" disallow="tram rail_urban rail rail_electric rail_fast ship container cable_car subway aircraft wheelchair scooter drone" speed="6.67" length="9.18" shape="2136.46,3315.81 2134.39,3317.15 2133.22,3318.86 2132.94,3320.95 2133.54,3323.41"/>
    </edge>
    <edge id=":3137535040_4" function="internal">
        <lane id=":3137535040_4_0" index="0" disallow="tram rail_urban rail rail_electric rail_fast ship container cable_car subway aircraft wheelchair scooter drone" speed="16.67" length="14.27" shape="2136.46,3315.81 2123.30,3321.49"/>
        <lane id=":3137535040_4_1" index="1" disallow="tram rail_urban rail rail_electric rail_fast ship container cable_car subway aircraft wheelchair scooter drone" speed="16.67" length="14.27" shape="2135.13,3312.90 2122.09,3318.52"/>
    </edge>
    <edge id=":3137535040_6" function="internal">
        <lane id=":3137535040_6_0" index="0" disallow="tram rail_urban rail rail_electric rail_fast ship container cable_car subway aircraft wheelchair scooter drone" speed="3.65" length="1.44" shape="2135.13,3312.90 2133.71,3312.68"/>
    </edge>
    <edge id=":3137535040_11" function="internal">
        <lane id=":3137535040_11_0" index="0" disallow="tram rail_urban rail rail_electric rail_fast ship container cable_car subway aircraft wheelchair scooter drone" speed="3.65" length="3.23" shape="2133.71,3312.68 2133.01,3312.11 2133.04,3311.22 2133.80,3309.99"/>
    </edge>
    <edge id=":3137535040_7" function="internal">
        <lane id=":3137535040_7_0" index="0" disallow="tram rail_urban rail rail_electric rail_fast ship container cable_car subway aircraft wheelchair scooter drone" speed="16.67" length="14.00" shape="2119.68,3312.60 2132.47,3307.08"/>
        <lane id=":3137535040_7_1" index="1" disallow="tram rail_urban rail rail_electric rail_fast ship container cable_car subway aircraft wheelchair scooter drone" speed="16.67" length="14.00" shape="2120.88,3315.56 2133.80,3309.99"/>
    </edge>
    <edge id=":3137535040_9" function="internal">
        <lane id=":3137535040_9_0" index="0" disallow="tram rail_urban rail rail_electric rail_fast ship container cable_car subway aircraft wheelchair scooter drone" speed="8.66" length="3.42" shape="2120.88,3315.56 2124.24,3314.90"/>
    </edge>
    <edge id=":3137535040_10" function="internal">
        <lane id=":3137535040_10_0" index="0" disallow="tram rail_urban rail rail_electric rail_fast ship container cable_car subway aircraft wheelchair scooter drone" speed="3.65" length="1.44" shape="2120.88,3315.56 2122.30,3315.85"/>
    </edge>
    <edge id=":3137535040_12" function="internal">
        <lane id=":3137535040_12_0" index="0" disallow="tram rail_urban rail rail_electric rail_fast ship container cable_car subway aircraft wheelchair scooter drone" speed="8.66" length="13.48" shape="2124.24,3314.90 2124.76,3314.80 2128.16,3315.85 2131.09,3318.72 2133.54,3323.41"/>
    </edge>
    <edge id=":3137535040_13" function="internal">
        <lane id=":3137535040_13_0" index="0" disallow="tram rail_urban rail rail_electric rail_fast ship container cable_car subway aircraft wheelchair scooter drone" speed="3.65" length="3.23" shape="2122.30,3315.85 2122.97,3316.44 2122.90,3317.33 2122.09,3318.52"/>
    </edge>
    <edge id=":3137535041_0" function="internal">
        <lane id=":3137535041_0_0" index="0" disallow="tram rail_urban rail rail_electric rail_fast ship container cable_car subway aircraft wheelchair scooter drone" speed="16.67" length="11.99" shape="2265.27,3257.21 2254.24,3261.75"/>
        <lane id=":3137535041_0_1" index="1" disallow="tram rail_urban rail rail_electric rail_fast ship container cable_car subway aircraft wheelchair scooter drone" speed="16.67" length="11.99" shape="2264.04,3254.25 2252.90,3258.84"/>
    </edge>
    <edge id=":3137535041_2" function="internal">
        <lane id=":3137535041_2_0" index="0" allow="pedestrian delivery bicycle" speed="7.79" length="6.23" shape="2264.04,3254.25 2258.05,3255.96"/>
    </edge>
    <edge id=":3137535041_9" function="internal">
        <lane id=":3137535041_9_0" index="0" allow="pedestrian delivery bicycle" speed="7.79" length="15.59" shape="2258.05,3255.96 2257.56,3256.10 2254.03,3255.02 2253.46,3251.01 2255.85,3244.07"/>
    </edge>
    <edge id=":3137535041_3" function="internal">
        <lane id=":3137535041_3_0" index="0" allow="pedestrian delivery bicycle" speed="4.69" length="6.82" shape="2258.76,3245.41 2258.06,3247.50 2258.30,3248.68 2259.47,3248.97 2261.59,3248.34"/>
    </edge>
    <edge id=":3137535041_4" function="internal">
        <lane id=":3137535041_4_0" index="0" allow="pedestrian delivery bicycle" speed="11.11" length="15.41" shape="2258.76,3245.41 2257.90,3249.00 2257.54,3252.68 2256.33,3256.09 2252.90,3258.84"/>
    </edge>
    <edge id=":3137535041_5" function="internal">
        <lane id=":3137535041_5_0" index="0" allow="pedestrian delivery bicycle" speed="3.65" length="4.67" shape="2258.76,3245.41 2257.53,3246.17 2256.64,3246.19 2256.08,3245.50 2255.85,3244.07"/>
    </edge>
    <edge id=":3137535041_6" function="internal">
        <lane id=":3137535041_6_0" index="0" allow="pedestrian delivery bicycle" speed="11.11" length="11.03" shape="2250.23,3253.03 2252.84,3251.34 2254.06,3249.43 2254.77,3247.08 2255.85,3244.07"/>
    </edge>
    <edge id=":3137535041_7" function="internal">
        <lane id=":3137535041_7_0" index="0" disallow="tram rail_urban rail rail_electric rail_fast ship container cable_car subway aircraft wheelchair scooter drone" speed="16.67" length="12.23" shape="2250.23,3253.03 2261.59,3248.34"/>
        <lane id=":3137535041_7_1" index="1" disallow="tram rail_urban rail rail_electric rail_fast ship container cable_car subway aircraft wheelchair scooter drone" speed="16.67" length="12.23" shape="2251.56,3255.94 2262.81,3251.30"/>
    </edge>
    <edge id=":3137542889_0" function="internal">
        <lane id=":3137542889_0_0" index="0" disallow="tram rail_urban rail rail_electric rail_fast ship container cable_car subway aircraft wheelchair scooter drone" speed="3.65" length="4.67" shape="7024.28,5565.95 7024.93,5567.24 7024.88,5568.13 7024.13,5568.63 7022.69,5568.73"/>
    </edge>
    <edge id=":3363331242_0" function="internal">
        <lane id=":3363331242_0_0" index="0" disallow="tram rail_urban rail rail_electric rail_fast ship container cable_car subway aircraft wheelchair scooter drone" speed="13.89" length="14.53" shape="746.15,828.52 743.38,826.10 740.63,823.79 737.82,821.55 734.87,819.36"/>
    </edge>
    <edge id=":3363331242_1" function="internal">
        <lane id=":3363331242_1_0" index="0" disallow="tram rail_urban rail rail_electric rail_fast ship container cable_car subway aircraft wheelchair scooter drone" speed="7.48" length="16.01" shape="746.15,828.52 743.10,824.96 742.37,821.72 743.95,818.81 747.85,816.21"/>
    </edge>
    <edge id=":3363331242_2" function="internal">
        <lane id=":3363331242_2_0" index="0" disallow="tram rail_urban rail rail_electric rail_fast ship container cable_car subway aircraft wheelchair scooter drone" speed="3.65" length="4.67" shape="746.15,828.52 745.78,827.12 746.01,826.26 746.84,825.93 748.27,826.12"/>
    </edge>
    <edge id=":3363331242_3" function="internal">
        <lane id=":3363331242_3_0" index="0" disallow="tram rail_urban rail rail_electric rail_fast ship container cable_car subway aircraft wheelchair scooter drone" speed="5.82" length="9.14" shape="749.24,819.10 747.01,820.58 746.11,822.24 746.53,824.09 748.27,826.12"/>
    </edge>
    <edge id=":3363331242_4" function="internal">
        <lane id=":3363331242_4_0" index="0" disallow="tram rail_urban rail rail_electric rail_fast ship container cable_car subway aircraft wheelchair scooter drone" speed="10.35" length="15.08" shape="749.24,819.10 745.04,820.70 741.25,821.28 737.86,820.83 734.87,819.36"/>
    </edge>
    <edge id=":3363331242_5" function="internal">
        <lane id=":3363331242_5_0" index="0" disallow="tram rail_urban rail rail_electric rail_fast ship container cable_car subway aircraft wheelchair scooter drone" speed="3.65" length="4.67" shape="749.24,819.10 747.81,818.90 747.10,818.35 747.11,817.45 747.85,816.21"/>
    </edge>
    <edge id=":3363331242_6" function="internal">
        <lane id=":3363331242_6_0" index="0" disallow="tram rail_urban rail rail_electric rail_fast ship container cable_car subway aircraft wheelchair scooter drone" speed="9.16" length="11.66" shape="736.73,816.75 738.94,817.80 741.52,818.05 744.49,817.53 747.85,816.21"/>
    </edge>
    <edge id=":3363331242_7" function="internal">
        <lane id=":3363331242_7_0" index="0" disallow="tram rail_urban rail rail_electric rail_fast ship container cable_car subway aircraft wheelchair scooter drone" speed="13.89" length="14.87" shape="736.73,816.75 739.72,818.98 742.62,821.28 745.45,823.67 748.27,826.12"/>
    </edge>
    <edge id=":3363331242_8" function="internal">
        <lane id=":3363331242_8_0" index="0" disallow="tram rail_urban rail rail_electric rail_fast ship container cable_car subway aircraft wheelchair scooter drone" speed="3.65" length="4.67" shape="736.73,816.75 737.24,818.10 737.10,818.98 736.31,819.40 734.87,819.36"/>
    </edge>
    <edge id=":3363486862_0" function="internal">
        <lane id=":3363486862_0_0" index="0" disallow="tram rail_urban rail rail_electric rail_fast ship container cable_car subway aircraft wheelchair scooter drone" speed="3.65" length="4.67" shape="415.67,1027.95 414.24,1028.15 413.41,1027.82 413.17,1026.95 413.54,1025.56"/>
    </edge>
    <edge id=":3839019980_0" function="internal">
        <lane id=":3839019980_0_0" index="0" disallow="tram rail_urban rail rail_electric rail_fast ship container cable_car subway aircraft wheelchair scooter drone" speed="16.67" length="14.98" shape="718.06,3317.83 710.25,3304.95"/>
        <lane id=":3839019980_0_1" index="1" disallow="tram rail_urban rail rail_electric rail_fast ship container cable_car subway aircraft wheelchair scooter drone" speed="16.67" length="14.98" shape="720.76,3316.11 713.03,3303.37"/>
    </edge>
    <edge id=":3839019980_2" function="internal">
        <lane id=":3839019980_2_0" index="0" disallow="tram rail_urban rail rail_electric rail_fast ship container cable_car subway aircraft wheelchair scooter drone" speed="8.39" length="4.30" shape="720.76,3316.11 719.14,3312.12"/>
    </edge>
    <edge id=":3839019980_3" function="internal">
        <lane id=":3839019980_3_0" index="0" disallow="tram rail_urban rail rail_electric rail_fast ship container cable_car subway aircraft wheelchair scooter drone" speed="3.65" length="1.44" shape="720.76,3316.11 720.79,3314.67"/>
    </edge>
    <edge id=":3839019980_11" function="internal">
        <lane id=":3839019980_11_0" index="0" disallow="tram rail_urban rail rail_electric rail_fast ship container cable_car subway aircraft wheelchair scooter drone" speed="8.39" length="13.68" shape="719.14,3312.12 719.07,3311.96 719.60,3308.31 722.35,3305.16 727.32,3302.51"/>
    </edge>
    <edge id=":3839019980_12" function="internal">
        <lane id=":3839019980_12_0" index="0" disallow="tram rail_urban rail rail_electric rail_fast ship container cable_car subway aircraft wheelchair scooter drone" speed="3.65" length="3.23" shape="720.79,3314.67 721.25,3313.90 722.14,3313.81 723.46,3314.39"/>
    </edge>
    <edge id=":3839019980_4" function="internal">
        <lane id=":3839019980_4_0" index="0" disallow="tram rail_urban rail rail_electric rail_fast ship container cable_car subway aircraft wheelchair scooter drone" speed="6.13" length="9.06" shape="728.50,3305.49 726.28,3306.75 725.15,3308.37 725.11,3310.35 726.16,3312.68"/>
    </edge>
    <edge id=":3839019980_5" function="internal">
        <lane id=":3839019980_5_0" index="0" disallow="tram rail_urban rail rail_electric rail_fast ship container cable_car subway aircraft wheelchair scooter drone" speed="9.21" length="17.09" shape="728.50,3305.49 723.16,3307.08 718.80,3307.25 715.43,3306.02 713.03,3303.37"/>
    </edge>
    <edge id=":3839019980_6" function="internal">
        <lane id=":3839019980_6_0" index="0" disallow="tram rail_urban rail rail_electric rail_fast ship container cable_car subway aircraft wheelchair scooter drone" speed="3.65" length="4.67" shape="728.50,3305.49 727.09,3305.18 726.42,3304.58 726.50,3303.69 727.32,3302.51"/>
    </edge>
    <edge id=":3839019980_7" function="internal">
        <lane id=":3839019980_7_0" index="0" disallow="tram rail_urban rail rail_electric rail_fast ship container cable_car subway aircraft wheelchair scooter drone" speed="7.16" length="9.98" shape="718.60,3300.21 720.14,3302.11 722.11,3303.13 724.50,3303.26 727.32,3302.51"/>
    </edge>
    <edge id=":3839019980_8" function="internal">
        <lane id=":3839019980_8_0" index="0" disallow="tram rail_urban rail rail_electric rail_fast ship container cable_car subway aircraft wheelchair scooter drone" speed="16.67" length="14.66" shape="718.60,3300.21 726.16,3312.68"/>
        <lane id=":3839019980_8_1" index="1" disallow="tram rail_urban rail rail_electric rail_fast ship container cable_car subway aircraft wheelchair scooter drone" speed="16.67" length="14.66" shape="715.82,3301.79 723.46,3314.39"/>
    </edge>
    <edge id=":3839019980_10" function="internal">
        <lane id=":3839019980_10_0" index="0" disallow="tram rail_urban rail rail_electric rail_fast ship container cable_car subway aircraft wheelchair scooter drone" speed="3.65" length="1.44" shape="715.82,3301.79 715.71,3303.23"/>
    </edge>
    <edge id=":3839019980_13" function="internal">
        <lane id=":3839019980_13_0" index="0" disallow="tram rail_urban rail rail_electric rail_fast ship container cable_car subway aircraft wheelchair scooter drone" speed="3.65" length="3.23" shape="715.71,3303.23 715.22,3303.97 714.32,3304.02 713.03,3303.37"/>
    </edge>
    <edge id=":3839019999_0" function="internal">
        <lane id=":3839019999_0_0" index="0" disallow="tram rail_urban rail rail_electric rail_fast ship container cable_car subway aircraft wheelchair scooter drone" speed="7.82" length="8.30" shape="1503.12,3422.74 1502.14,3421.18 1500.67,3419.99 1498.73,3419.17 1496.30,3418.71"/>
    </edge>
    <edge id=":3839019999_1" function="internal">
        <lane id=":3839019999_1_0" index="0" disallow="tram rail_urban rail rail_electric rail_fast ship container cable_car subway aircraft wheelchair scooter drone" speed="10.33" length="12.08" shape="1503.12,3422.74 1502.77,3420.77 1503.17,3418.22 1504.31,3415.08 1506.19,3411.36"/>
    </edge>
    <edge id=":3839019999_2" function="internal">
        <lane id=":3839019999_2_0" index="0" disallow="tram rail_urban rail rail_electric rail_fast ship container cable_car subway aircraft wheelchair scooter drone" speed="3.65" length="4.67" shape="1503.12,3422.74 1503.38,3421.32 1503.96,3420.64 1504.86,3420.70 1506.06,3421.49"/>
    </edge>
    <edge id=":3839019999_3" function="internal">
        <lane id=":3839019999_3_0" index="0" disallow="tram rail_urban rail rail_electric rail_fast ship container cable_car subway aircraft wheelchair scooter drone" speed="6.82" length="8.47" shape="1508.06,3414.03 1506.44,3415.53 1505.56,3417.27 1505.44,3419.26 1506.06,3421.49"/>
    </edge>
    <edge id=":3839019999_4" function="internal">
        <lane id=":3839019999_4_0" index="0" disallow="tram rail_urban rail rail_electric rail_fast ship container cable_car subway aircraft wheelchair scooter drone" speed="12.83" length="12.99" shape="1508.06,3414.03 1505.19,3416.03 1502.50,3417.63 1499.66,3418.60 1496.30,3418.71"/>
    </edge>
    <edge id=":3839019999_5" function="internal">
        <lane id=":3839019999_5_0" index="0" disallow="tram rail_urban rail rail_electric rail_fast ship container cable_car subway aircraft wheelchair scooter drone" speed="3.90" length="1.24" shape="1508.06,3414.03 1506.82,3414.06"/>
    </edge>
    <edge id=":3839019999_9" function="internal">
        <lane id=":3839019999_9_0" index="0" disallow="tram rail_urban rail rail_electric rail_fast ship container cable_car subway aircraft wheelchair scooter drone" speed="3.90" length="3.52" shape="1506.82,3414.06 1506.59,3414.06 1505.79,3413.63 1505.65,3412.73 1506.19,3411.36"/>
    </edge>
    <edge id=":3839019999_6" function="internal">