<?xml version="1.0" encoding="UTF-8"?>

<!-- generated on 2025-11-17T19:25:46.217028-03:00 by Eclipse SUMO netconvert 1.25.0
<netconvertConfiguration xmlns:xsi="http://www.w3.org/2001/XMLSchema-instance" xsi:noNamespaceSchemaLocation="http://sumo.dlr.de/xsd/netconvertConfiguration.xsd">

    <input>
        <osm-files value="research_maps/osm_files/suburban.osm"/>
    </input>

    <output>
        <output-file value="research_maps/sumo_xml/suburban.net.xml"/>
    </output>

    <projection>
        <proj.utm value="true"/>
    </projection>

    <processing>
        <geometry.remove value="true"/>
        <offset.disable-normalization value="true"/>
        <roundabouts.guess value="true"/>
    </processing>

    <tls_building>
        <tls.discard-simple value="true"/>
        <tls.join value="true"/>
        <tls.guess-signals value="true"/>
    </tls_building>

    <ramp_guessing>
        <ramps.guess value="true"/>
    </ramp_guessing>

    <edge_removal>
        <keep-edges.by-vclass value="passenger"/>
        <remove-edges.by-vclass value="pedestrian,bicycle"/>
    </edge_removal>

    <junctions>
        <junctions.join value="true"/>
        <junctions.join-dist value="15.0"/>
    </junctions>

    <report>
        <verbose value="true"/>
    </report>

</netconvertConfiguration>
-->

<net version="1.20" junctionCornerDetail="5" limitTurnSpeed="5.50" xmlns:xsi="http://www.w3.org/2001/XMLSchema-instance" xsi:noNamespaceSchemaLocation="http://sumo.dlr.de/xsd/net_file.xsd">

    <location netOffset="0.00,0.00" convBoundary="381439.98,5810353.27,383159.13,5811952.80" origBoundary="13.248984,52.430688,13.291919,52.446028" projParameter="+proj=utm +zone=33 +ellps=WGS84 +datum=WGS84 +units=m +no_defs"/>

    <type id="highway.living_street" priority="2" numLanes="1" speed="2.78" disallow="tram rail_urban rail rail_electric rail_fast ship container cable_car subway aircraft wheelchair scooter drone" oneway="0"/>
    <type id="highway.primary" priority="12" numLanes="2" speed="27.78" disallow="tram rail_urban rail rail_electric rail_fast ship container cable_car subway aircraft wheelchair scooter drone" oneway="0"/>
    <type id="highway.residential" priority="3" numLanes="1" speed="13.89" disallow="tram rail_urban rail rail_electric rail_fast ship container cable_car subway aircraft wheelchair scooter drone" oneway="0"/>
    <type id="highway.secondary" priority="11" numLanes="1" speed="27.78" disallow="tram rail_urban rail rail_electric rail_fast ship container cable_car subway aircraft wheelchair scooter drone" oneway="0"/>
    <type id="highway.tertiary" priority="10" numLanes="1" speed="22.22" disallow="tram rail_urban rail rail_electric rail_fast ship container cable_car subway aircraft wheelchair scooter drone" oneway="0"/>

    <edge id=":10017679367_0" function="internal">
        <lane id=":10017679367_0_0" index="0" disallow="tram rail_urban rail rail_electric rail_fast ship container cable_car subway aircraft wheelchair scooter drone" speed="3.65" length="4.67" shape="381666.29,5810615.81 381666.57,5810614.39 381667.16,5810613.72 381668.05,5810613.79 381669.25,5810614.59"/>
    </edge>
    <edge id=":11872157581_0" function="internal">
        <lane id=":11872157581_0_0" index="0" disallow="tram rail_urban rail rail_electric rail_fast ship container cable_car subway aircraft wheelchair scooter drone" speed="3.65" length="4.67" shape="382068.53,5810611.04 382067.99,5810609.71 382068.11,5810608.82 382068.89,5810608.38 382070.33,5810608.40"/>
    </edge>
    <edge id=":13098515580_0" function="internal">
        <lane id=":13098515580_0_0" index="0" disallow="tram rail_urban rail rail_electric rail_fast ship container cable_car subway aircraft wheelchair scooter drone" speed="3.65" length="4.67" shape="382888.17,5810502.77 382889.46,5810502.12 382890.35,5810502.17 382890.85,5810502.91 382890.95,5810504.35"/>
    </edge>
    <edge id=":13098879306_0" function="internal">
        <lane id=":13098879306_0_0" index="0" disallow="tram rail_urban rail rail_electric rail_fast ship container cable_car subway aircraft wheelchair scooter drone" speed="3.65" length="4.67" shape="381753.53,5810503.09 381753.87,5810501.69 381754.48,5810501.04 381755.37,5810501.14 381756.53,5810501.99"/>
    </edge>
    <edge id=":13098879396_0" function="internal">
        <lane id=":13098879396_0_0" index="0" disallow="tram rail_urban rail rail_electric rail_fast ship container cable_car subway aircraft wheelchair scooter drone" speed="3.65" length="4.67" shape="381570.81,5810688.26 381569.40,5810687.97 381568.73,5810687.38 381568.80,5810686.49 381569.61,5810685.30"/>
    </edge>
    <edge id=":13101184204_0" function="internal">
        <lane id=":13101184204_0_0" index="0" disallow="tram rail_urban rail rail_electric rail_fast ship container cable_car subway aircraft wheelchair scooter drone" speed="3.65" length="4.67" shape="381933.01,5810598.80 381934.18,5810597.96 381935.07,5810597.86 381935.68,5810598.51 381936.01,5810599.92"/>
    </edge>
    <edge id=":13101184243_0" function="internal">
        <lane id=":13101184243_0_0" index="0" disallow="tram rail_urban rail rail_electric rail_fast ship container cable_car subway aircraft wheelchair scooter drone" speed="3.65" length="4.67" shape="381559.79,5810799.98 381560.15,5810798.58 381560.77,5810797.94 381561.66,5810798.05 381562.81,5810798.92"/>
    </edge>
    <edge id=":13114251465_0" function="internal">
        <lane id=":13114251465_0_0" index="0" disallow="tram rail_urban rail rail_electric rail_fast ship container cable_car subway aircraft wheelchair scooter drone" speed="3.65" length="4.67" shape="382083.75,5811735.67 382082.39,5811736.15 382081.51,5811735.99 382081.11,5811735.19 382081.19,5811733.75"/>
    </edge>
    <edge id=":13114251478_0" function="internal">
        <lane id=":13114251478_0_0" index="0" disallow="tram rail_urban rail rail_electric rail_fast ship container cable_car subway aircraft wheelchair scooter drone" speed="3.65" length="4.67" shape="381542.23,5811173.67 381541.13,5811172.74 381540.82,5811171.90 381541.31,5811171.15 381542.59,5811170.49"/>
    </edge>
    <edge id=":13115155522_0" function="internal">
        <lane id=":13115155522_0_0" index="0" disallow="tram rail_urban rail rail_electric rail_fast ship container cable_car subway aircraft wheelchair scooter drone" speed="3.65" length="4.67" shape="381832.27,5811738.00 381831.22,5811738.99 381830.35,5811739.20 381829.66,5811738.63 381829.15,5811737.28"/>
    </edge>
    <edge id=":13128024996_0" function="internal">
        <lane id=":13128024996_0_0" index="0" disallow="pedestrian tram rail_urban rail rail_electric rail_fast ship container cable_car subway aircraft wheelchair scooter drone" speed="3.65" length="4.67" shape="382781.53,5811713.73 382780.14,5811713.34 382779.51,5811712.71 382779.64,5811711.82 382780.53,5811710.69"/>
    </edge>
    <edge id=":13128096786_0" function="internal">
        <lane id=":13128096786_0_0" index="0" disallow="pedestrian tram rail_urban rail rail_electric rail_fast ship container cable_car subway aircraft wheelchair scooter drone" speed="3.65" length="4.67" shape="382416.14,5811791.37 382415.01,5811792.28 382414.13,5811792.42 382413.49,5811791.79 382413.08,5811790.41"/>
    </edge>
    <edge id=":13130875242_0" function="internal">
        <lane id=":13130875242_0_0" index="0" disallow="pedestrian tram rail_urban rail rail_electric rail_fast ship container cable_car subway aircraft wheelchair scooter drone" speed="3.65" length="4.67" shape="383135.75,5811558.81 383137.12,5811559.26 383137.72,5811559.92 383137.55,5811560.80 383136.61,5811561.89"/>
    </edge>
    <edge id=":133114245_0" function="internal">
        <lane id=":133114245_0_0" index="0" disallow="tram rail_urban rail rail_electric rail_fast ship container cable_car subway aircraft wheelchair scooter drone" speed="6.40" length="9.04" shape="382742.89,5810633.15 382740.47,5810633.74 382738.86,5810634.96 382738.05,5810636.82 382738.06,5810639.31"/>
    </edge>
    <edge id=":133114245_1" function="internal">
        <lane id=":133114245_1_0" index="0" disallow="tram rail_urban rail rail_electric rail_fast ship container cable_car subway aircraft wheelchair scooter drone" speed="8.33" length="11.20" shape="382742.89,5810633.15 382731.74,5810634.20"/>
    </edge>
    <edge id=":133114245_2" function="internal">
        <lane id=":133114245_2_0" index="0" disallow="tram rail_urban rail rail_electric rail_fast ship container cable_car subway aircraft wheelchair scooter drone" speed="3.65" length="4.67" shape="382742.89,5810633.15 382741.62,5810632.47 382741.15,5810631.71 382741.47,5810630.87 382742.59,5810629.96"/>
    </edge>
    <edge id=":133114245_3" function="internal">
        <lane id=":133114245_3_0" index="0" disallow="tram rail_urban rail rail_electric rail_fast ship container cable_car subway aircraft wheelchair scooter drone" speed="8.33" length="11.20" shape="382731.44,5810631.02 382742.59,5810629.96"/>
    </edge>
    <edge id=":133114245_4" function="internal">
        <lane id=":133114245_4_0" index="0" disallow="tram rail_urban rail rail_electric rail_fast ship container cable_car subway aircraft wheelchair scooter drone" speed="7.48" length="11.78" shape="382731.44,5810631.02 382733.85,5810631.35 382735.76,5810632.84 382737.16,5810635.49 382738.06,5810639.31"/>
    </edge>
    <edge id=":133114245_5" function="internal">
        <lane id=":133114245_5_0" index="0" disallow="tram rail_urban rail rail_electric rail_fast ship container cable_car subway aircraft wheelchair scooter drone" speed="3.65" length="4.67" shape="382731.44,5810631.02 382732.71,5810631.70 382733.18,5810632.46 382732.86,5810633.30 382731.74,5810634.20"/>
    </edge>
    <edge id=":133114251_0" function="internal">
        <lane id=":133114251_0_0" index="0" disallow="tram rail_urban rail rail_electric rail_fast ship container cable_car subway aircraft wheelchair scooter drone" speed="8.33" length="14.55" shape="382640.43,5810642.84 382625.97,5810644.40"/>
    </edge>
    <edge id=":133114251_1" function="internal">
        <lane id=":133114251_1_0" index="0" disallow="tram rail_urban rail rail_electric rail_fast ship container cable_car subway aircraft wheelchair scooter drone" speed="7.58" length="15.42" shape="382640.43,5810642.84 382636.02,5810642.63 382633.15,5810641.02 382631.83,5810638.01 382632.05,5810633.60"/>
    </edge>
    <edge id=":133114251_2" function="internal">
        <lane id=":133114251_2_0" index="0" disallow="tram rail_urban rail rail_electric rail_fast ship container cable_car subway aircraft wheelchair scooter drone" speed="3.65" length="4.67" shape="382640.43,5810642.84 382639.16,5810642.16 382638.69,5810641.40 382639.01,5810640.57 382640.13,5810639.66"/>
    </edge>
    <edge id=":133114251_3" function="internal">
        <lane id=":133114251_3_0" index="0" disallow="tram rail_urban rail rail_electric rail_fast ship container cable_car subway aircraft wheelchair scooter drone" speed="5.98" length="9.08" shape="382635.19,5810634.21 382635.06,5810636.81 382635.84,5810638.58 382637.53,5810639.53 382640.13,5810639.66"/>
    </edge>
    <edge id=":133114251_4" function="internal">
        <lane id=":133114251_4_0" index="0" disallow="tram rail_urban rail rail_electric rail_fast ship container cable_car subway aircraft wheelchair scooter drone" speed="8.33" length="14.78" shape="382635.19,5810634.21 382633.94,5810638.32 382631.98,5810641.39 382629.33,5810643.42 382625.97,5810644.40"/>
    </edge>
    <edge id=":133114251_5" function="internal">
        <lane id=":133114251_5_0" index="0" disallow="tram rail_urban rail rail_electric rail_fast ship container cable_car subway aircraft wheelchair scooter drone" speed="3.65" length="4.67" shape="382635.19,5810634.21 382634.18,5810635.24 382633.32,5810635.48 382632.61,5810634.93 382632.05,5810633.60"/>
    </edge>
    <edge id=":133114251_6" function="internal">
        <lane id=":133114251_6_0" index="0" disallow="tram rail_urban rail rail_electric rail_fast ship container cable_car subway aircraft wheelchair scooter drone" speed="8.00" length="10.74" shape="382625.57,5810641.23 382627.89,5810640.51 382629.75,5810639.00 382631.13,5810636.70 382632.05,5810633.60"/>
    </edge>
    <edge id=":133114251_7" function="internal">
        <lane id=":133114251_7_0" index="0" disallow="tram rail_urban rail rail_electric rail_fast ship container cable_car subway aircraft wheelchair scooter drone" speed="8.33" length="14.64" shape="382625.57,5810641.23 382640.13,5810639.66"/>
    </edge>
    <edge id=":133114251_8" function="internal">
        <lane id=":133114251_8_0" index="0" disallow="tram rail_urban rail rail_electric rail_fast ship container cable_car subway aircraft wheelchair scooter drone" speed="3.65" length="4.67" shape="382625.57,5810641.23 382626.86,5810641.87 382627.36,5810642.62 382627.06,5810643.46 382625.97,5810644.40"/>
    </edge>
    <edge id=":133114255_0" function="internal">
        <lane id=":133114255_0_0" index="0" disallow="tram rail_urban rail rail_electric rail_fast ship container cable_car subway aircraft wheelchair scooter drone" speed="6.51" length="9.01" shape="382450.46,5810669.32 382449.86,5810666.93 382448.64,5810665.30 382446.79,5810664.44 382444.33,5810664.34"/>
    </edge>
    <edge id=":133114255_1" function="internal">
        <lane id=":133114255_1_0" index="0" disallow="tram rail_urban rail rail_electric rail_fast ship container cable_car subway aircraft wheelchair scooter drone" speed="7.34" length="11.69" shape="382450.46,5810669.32 382450.41,5810665.46 382451.15,5810662.61 382452.70,5810660.78 382455.06,5810659.96"/>
    </edge>
    <edge id=":133114255_2" function="internal">
        <lane id=":133114255_2_0" index="0" disallow="tram rail_urban rail rail_electric rail_fast ship container cable_car subway aircraft wheelchair scooter drone" speed="8.33" length="11.15" shape="382455.42,5810663.14 382444.33,5810664.34"/>
    </edge>
    <edge id=":133114255_3" function="internal">
        <lane id=":133114255_3_0" index="0" disallow="tram rail_urban rail rail_electric rail_fast ship container cable_car subway aircraft wheelchair scooter drone" speed="3.65" length="4.67" shape="382455.42,5810663.14 382454.13,5810662.48 382453.65,5810661.73 382453.95,5810660.89 382455.06,5810659.96"/>
    </edge>
    <edge id=":133114255_4" function="internal">
        <lane id=":133114255_4_0" index="0" disallow="tram rail_urban rail rail_electric rail_fast ship container cable_car subway aircraft wheelchair scooter drone" speed="8.33" length="11.12" shape="382444.00,5810661.15 382455.06,5810659.96"/>
    </edge>
    <edge id=":133114255_5" function="internal">
        <lane id=":133114255_5_0" index="0" disallow="tram rail_urban rail rail_electric rail_fast ship container cable_car subway aircraft wheelchair scooter drone" speed="3.65" length="4.67" shape="382444.00,5810661.15 382445.28,5810661.83 382445.76,5810662.58 382445.44,5810663.42 382444.33,5810664.34"/>
    </edge>
    <edge id=":133114259_0" function="internal">
        <lane id=":133114259_0_0" index="0" disallow="tram rail_urban rail rail_electric rail_fast ship container cable_car subway aircraft wheelchair scooter drone" speed="8.33" length="14.44" shape="382369.16,5810672.01 382354.79,5810673.48"/>
    </edge>
    <edge id=":133114259_1" function="internal">
        <lane id=":133114259_1_0" index="0" disallow="tram rail_urban rail rail_electric rail_fast ship container cable_car subway aircraft wheelchair scooter drone" speed="7.82" length="14.62" shape="382369.16,5810672.01 382365.10,5810671.84 382362.20,5810670.39 382360.48,5810667.64 382359.92,5810663.61"/>
    </edge>
    <edge id=":133114259_2" function="internal">
        <lane id=":133114259_2_0" index="0" disallow="tram rail_urban rail rail_electric rail_fast ship container cable_car subway aircraft wheelchair scooter drone" speed="3.65" length="4.67" shape="382369.16,5810672.01 382367.89,5810671.34 382367.41,5810670.58 382367.72,5810669.75 382368.84,5810668.83"/>
    </edge>
    <edge id=":133114259_3" function="internal">
        <lane id=":133114259_3_0" index="0" disallow="tram rail_urban rail rail_electric rail_fast ship container cable_car subway aircraft wheelchair scooter drone" speed="6.29" length="9.04" shape="382363.12,5810663.63 382363.46,5810666.13 382364.53,5810667.82 382366.32,5810668.72 382368.84,5810668.83"/>
    </edge>
    <edge id=":133114259_4" function="internal">
        <lane id=":133114259_4_0" index="0" disallow="tram rail_urban rail rail_electric rail_fast ship container cable_car subway aircraft wheelchair scooter drone" speed="8.33" length="14.37" shape="382363.12,5810663.63 382362.58,5810667.62 382361.01,5810670.60 382358.42,5810672.55 382354.79,5810673.48"/>
    </edge>
    <edge id=":133114259_5" function="internal">
        <lane id=":133114259_5_0" index="0" disallow="tram rail_urban rail rail_electric rail_fast ship container cable_car subway aircraft wheelchair scooter drone" speed="3.65" length="4.67" shape="382363.12,5810663.63 382362.31,5810664.83 382361.51,5810665.22 382360.71,5810664.82 382359.92,5810663.61"/>
    </edge>
    <edge id=":133114259_6" function="internal">
        <lane id=":133114259_6_0" index="0" disallow="tram rail_urban rail rail_electric rail_fast ship container cable_car subway aircraft wheelchair scooter drone" speed="6.95" length="9.61" shape="382354.47,5810670.29 382356.84,5810669.67 382358.54,5810668.35 382359.56,5810666.33 382359.92,5810663.61"/>
    </edge>
    <edge id=":133114259_7" function="internal">
        <lane id=":133114259_7_0" index="0" disallow="tram rail_urban rail rail_electric rail_fast ship container cable_car subway aircraft wheelchair scooter drone" speed="8.33" length="14.44" shape="382354.47,5810670.29 382368.84,5810668.83"/>
    </edge>
    <edge id=":133114259_8" function="internal">
        <lane id=":133114259_8_0" index="0" disallow="tram rail_urban rail rail_electric rail_fast ship container cable_car subway aircraft wheelchair scooter drone" speed="3.65" length="4.67" shape="382354.47,5810670.29 382355.75,5810670.97 382356.22,5810671.72 382355.91,5810672.56 382354.79,5810673.48"/>
    </edge>
    <edge id=":133114270_0" function="internal">
        <lane id=":133114270_0_0" index="0" disallow="tram rail_urban rail rail_electric rail_fast ship container cable_car subway aircraft wheelchair scooter drone" speed="8.33" length="15.02" shape="382187.90,5810681.67 382184.45,5810680.19 382181.04,5810678.61 382177.69,5810676.92 382174.38,5810675.14"/>
    </edge>
    <edge id=":133114270_1" function="internal">
        <lane id=":133114270_1_0" index="0" disallow="tram rail_urban rail rail_electric rail_fast ship container cable_car subway aircraft wheelchair scooter drone" speed="8.27" length="14.63" shape="382187.90,5810681.67 382184.62,5810679.71 382182.72,5810677.05 382182.19,5810673.69 382183.04,5810669.64"/>
    </edge>
    <edge id=":133114270_2" function="internal">
        <lane id=":133114270_2_0" index="0" disallow="tram rail_urban rail rail_electric rail_fast ship container cable_car subway aircraft wheelchair scooter drone" speed="3.65" length="4.67" shape="382187.90,5810681.67 382187.09,5810680.48 382187.02,5810679.58 382187.69,5810679.00 382189.10,5810678.71"/>
    </edge>
    <edge id=":133114270_3" function="internal">
        <lane id=":133114270_3_0" index="0" disallow="tram rail_urban rail rail_electric rail_fast ship container cable_car subway aircraft wheelchair scooter drone" speed="6.83" length="9.66" shape="382186.07,5810670.69 382185.48,5810673.42 382185.79,5810675.66 382187.00,5810677.42 382189.10,5810678.71"/>
    </edge>
    <edge id=":133114270_4" function="internal">
        <lane id=":133114270_4_0" index="0" disallow="tram rail_urban rail rail_electric rail_fast ship container cable_car subway aircraft wheelchair scooter drone" speed="7.73" length="14.89" shape="382186.07,5810670.69 382184.13,5810674.41 382181.54,5810676.38 382178.29,5810676.63 382174.38,5810675.14"/>
    </edge>
    <edge id=":133114270_5" function="internal">
        <lane id=":133114270_5_0" index="0" disallow="tram rail_urban rail rail_electric rail_fast ship container cable_car subway aircraft wheelchair scooter drone" speed="3.65" length="4.67" shape="382186.07,5810670.69 382184.91,5810671.56 382184.03,5810671.68 382183.40,5810671.03 382183.04,5810669.64"/>
    </edge>
    <edge id=":133114270_6" function="internal">
        <lane id=":133114270_6_0" index="0" disallow="tram rail_urban rail rail_electric rail_fast ship container cable_car subway aircraft wheelchair scooter drone" speed="6.17" length="9.05" shape="382175.94,5810672.34 382178.32,5810673.25 382180.29,5810673.10 382181.87,5810671.90 382183.04,5810669.64"/>
    </edge>
    <edge id=":133114270_7" function="internal">
        <lane id=":133114270_7_0" index="0" disallow="tram rail_urban rail rail_electric rail_fast ship container cable_car subway aircraft wheelchair scooter drone" speed="8.33" length="14.63" shape="382175.94,5810672.34 382179.19,5810674.09 382182.42,5810675.73 382185.71,5810677.26 382189.10,5810678.71"/>
    </edge>
    <edge id=":133114270_8" function="internal">
        <lane id=":133114270_8_0" index="0" disallow="tram rail_urban rail rail_electric rail_fast ship container cable_car subway aircraft wheelchair scooter drone" speed="3.65" length="4.67" shape="382175.94,5810672.34 382176.60,5810673.62 382176.56,5810674.52 382175.82,5810675.02 382174.38,5810675.14"/>
    </edge>
    <edge id=":1338471092_0" function="internal">
        <lane id=":1338471092_0_0" index="0" disallow="tram rail_urban rail rail_electric rail_fast ship container cable_car subway aircraft wheelchair scooter drone" speed="1.39" length="4.38" width="3.00" shape="383026.05,5810953.73 383026.67,5810954.93 383026.63,5810955.77 383025.94,5810956.24 383024.59,5810956.35"/>
    </edge>
    <edge id=":150895643_0" function="internal">
        <lane id=":150895643_0_0" index="0" disallow="tram rail_urban rail rail_electric rail_fast ship container cable_car subway aircraft wheelchair scooter drone" speed="8.33" length="8.77" shape="381664.21,5811187.36 381662.69,5811187.55 381661.02,5811188.42 381659.20,5811189.97 381657.22,5811192.18"/>
    </edge>
    <edge id=":150895643_1" function="internal">
        <lane id=":150895643_1_0" index="0" disallow="tram rail_urban rail rail_electric rail_fast ship container cable_car subway aircraft wheelchair scooter drone" speed="8.33" length="14.38" shape="381664.21,5811187.36 381649.91,5811185.84"/>
    </edge>
    <edge id=":150895643_2" function="internal">
        <lane id=":150895643_2_0" index="0" disallow="tram rail_urban rail rail_electric rail_fast ship container cable_car subway aircraft wheelchair scooter drone" speed="3.65" length="4.67" shape="381664.21,5811187.36 381663.09,5811186.44 381662.77,5811185.61 381663.25,5811184.85 381664.52,5811184.17"/>
    </edge>
    <edge id=":150895643_3" function="internal">
        <lane id=":150895643_3_0" index="0" disallow="tram rail_urban rail rail_electric rail_fast ship container cable_car subway aircraft wheelchair scooter drone" speed="8.33" length="14.33" shape="381650.27,5811182.66 381664.52,5811184.17"/>
    </edge>
    <edge id=":150895643_4" function="internal">
        <lane id=":150895643_4_0" index="0" disallow="tram rail_urban rail rail_electric rail_fast ship container cable_car subway aircraft wheelchair scooter drone" speed="7.18" length="16.09" shape="381650.27,5811182.66 381655.73,5811183.83 381658.71,5811185.80 381659.20,5811188.59 381657.22,5811192.18"/>
    </edge>
    <edge id=":150895643_5" function="internal">
        <lane id=":150895643_5_0" index="0" disallow="tram rail_urban rail rail_electric rail_fast ship container cable_car subway aircraft wheelchair scooter drone" speed="3.65" length="4.67" shape="381650.27,5811182.66 381651.37,5811183.59 381651.68,5811184.43 381651.19,5811185.18 381649.91,5811185.84"/>
    </edge>
    <edge id=":150895643_6" function="internal">
        <lane id=":150895643_6_0" index="0" disallow="tram rail_urban rail rail_electric rail_fast ship container cable_car subway aircraft wheelchair scooter drone" speed="5.65" length="9.39" shape="381653.60,5811191.57 381654.84,5811189.38 381654.64,5811187.70 381652.99,5811186.52 381649.91,5811185.84"/>
    </edge>
    <edge id=":150895643_7" function="internal">
        <lane id=":150895643_7_0" index="0" disallow="tram rail_urban rail rail_electric rail_fast ship container cable_car subway aircraft wheelchair scooter drone" speed="8.33" length="13.63" shape="381653.60,5811191.57 381656.66,5811188.16 381659.49,5811185.79 381662.12,5811184.46 381664.52,5811184.17"/>
    </edge>
    <edge id=":150895643_8" function="internal">
        <lane id=":150895643_8_0" index="0" disallow="tram rail_urban rail rail_electric rail_fast ship container cable_car subway aircraft wheelchair scooter drone" speed="3.82" length="5.35" shape="381653.60,5811191.57 381654.74,5811190.37 381655.72,5811190.07 381656.54,5811190.67 381657.22,5811192.18"/>
    </edge>
    <edge id=":150895818_0" function="internal">
        <lane id=":150895818_0_0" index="0" disallow="tram rail_urban rail rail_electric rail_fast ship container cable_car subway aircraft wheelchair scooter drone" speed="8.33" length="16.01" shape="381699.42,5811196.75 381697.31,5811193.89 381694.35,5811191.71 381690.56,5811190.22 381685.93,5811189.41"/>
    </edge>
    <edge id=":150895818_1" function="internal">
        <lane id=":150895818_1_0" index="0" disallow="tram rail_urban rail rail_electric rail_fast ship container cable_car subway aircraft wheelchair scooter drone" speed="8.33" length="18.87" shape="381699.42,5811196.75 381697.27,5811192.97 381694.59,5811188.65 381691.80,5811184.40 381689.33,5811180.81"/>
    </edge>
    <edge id=":150895818_2" function="internal">
        <lane id=":150895818_2_0" index="0" disallow="tram rail_urban rail rail_electric rail_fast ship container cable_car subway aircraft wheelchair scooter drone" speed="3.65" length="4.67" shape="381699.42,5811196.75 381699.57,5811195.31 381700.09,5811194.58 381700.98,5811194.56 381702.25,5811195.25"/>
    </edge>
    <edge id=":150895818_3" function="internal">
        <lane id=":150895818_3_0" index="0" disallow="tram rail_urban rail rail_electric rail_fast ship container cable_car subway aircraft wheelchair scooter drone" speed="5.60" length="9.33" shape="381705.94,5811189.81 381703.09,5811189.86 381701.53,5811190.79 381701.25,5811192.58 381702.25,5811195.25"/>
    </edge>
    <edge id=":150895818_4" function="internal">
        <lane id=":150895818_4_0" index="0" disallow="tram rail_urban rail rail_electric rail_fast ship container cable_car subway aircraft wheelchair scooter drone" speed="8.33" length="20.02" shape="381705.94,5811189.81 381701.41,5811189.58 381695.93,5811189.58 381690.45,5811189.59 381685.93,5811189.41"/>
    </edge>
    <edge id=":150895818_5" function="internal">
        <lane id=":150895818_5_0" index="0" disallow="tram rail_urban rail rail_electric rail_fast ship container cable_car subway aircraft wheelchair scooter drone" speed="8.33" length="19.46" shape="381705.94,5811189.81 381700.76,5811188.79 381696.26,5811186.95 381692.46,5811184.30 381689.33,5811180.81"/>
    </edge>
    <edge id=":150895818_6" function="internal">
        <lane id=":150895818_6_0" index="0" disallow="tram rail_urban rail rail_electric rail_fast ship container cable_car subway aircraft wheelchair scooter drone" speed="8.33" length="19.30" shape="381691.93,5811178.95 381694.44,5811182.59 381697.30,5811186.97 381700.06,5811191.41 381702.25,5811195.25"/>
    </edge>
    <edge id=":150895818_7" function="internal">
        <lane id=":150895818_7_0" index="0" disallow="tram rail_urban rail rail_electric rail_fast ship container cable_car subway aircraft wheelchair scooter drone" speed="7.39" length="18.46" shape="381691.93,5811178.95 381694.72,5811184.03 381694.65,5811187.47 381691.72,5811189.26 381685.93,5811189.41"/>
    </edge>
    <edge id=":150895818_8" function="internal">
        <lane id=":150895818_8_0" index="0" disallow="tram rail_urban rail rail_electric rail_fast ship container cable_car subway aircraft wheelchair scooter drone" speed="3.65" length="4.67" shape="381691.93,5811178.95 381691.98,5811180.39 381691.56,5811181.18 381690.68,5811181.32 381689.33,5811180.81"/>
    </edge>
    <edge id=":150895818_9" function="internal">
        <lane id=":150895818_9_0" index="0" disallow="tram rail_urban rail rail_electric rail_fast ship container cable_car subway aircraft wheelchair scooter drone" speed="5.51" length="9.55" shape="381686.22,5811186.22 381689.22,5811186.14 381690.74,5811185.22 381690.77,5811183.44 381689.33,5811180.81"/>
    </edge>
    <edge id=":150895818_10" function="internal">
        <lane id=":150895818_10_0" index="0" disallow="tram rail_urban rail rail_electric rail_fast ship container cable_car subway aircraft wheelchair scooter drone" speed="8.33" length="19.17" shape="381686.22,5811186.22 381691.66,5811187.20 381696.14,5811189.03 381699.67,5811191.71 381702.25,5811195.25"/>
    </edge>
    <edge id=":150895818_11" function="internal">
        <lane id=":150895818_11_0" index="0" disallow="tram rail_urban rail rail_electric rail_fast ship container cable_car subway aircraft wheelchair scooter drone" speed="3.65" length="4.67" shape="381686.22,5811186.22 381687.34,5811187.13 381687.67,5811187.96 381687.19,5811188.72 381685.93,5811189.41"/>
    </edge>
    <edge id=":150895819_0" function="internal">
        <lane id=":150895819_0_0" index="0" disallow="tram rail_urban rail rail_electric rail_fast ship container cable_car subway aircraft wheelchair scooter drone" speed="6.55" length="8.76" shape="381871.03,5811204.47 381869.86,5811202.42 381868.30,5811201.19 381866.33,5811200.79 381863.96,5811201.22"/>
    </edge>