<?xml version="1.0" encoding="UTF-8"?>

<!-- generated on 2025-11-16T20:26:20.367785-03:00 by Eclipse SUMO netconvert 1.25.0
<netconvertConfiguration xmlns:xsi="http://www.w3.org/2001/XMLSchema-instance" xsi:noNamespaceSchemaLocation="http://sumo.dlr.de/xsd/netconvertConfiguration.xsd">

    <input>
        <osm-files value="optimized_maps/osm_files/suburban.osm"/>
    </input>

    <output>
        <output-file value="optimized_maps/sumo_xml/suburban.net.xml"/>
    </output>

    <projection>
        <proj.utm value="true"/>
    </projection>

    <processing>
        <geometry.remove value="true"/>
        <roundabouts.guess value="true"/>
    </processing>

    <tls_building>
        <tls.discard-simple value="true"/>
        <tls.join value="true"/>
        <tls.guess-signals value="true"/>
    </tls_building>

    <ramp_guessing>
        <ramps.guess value="true"/>
    </ramp_guessing>

    <junctions>
        <junctions.join value="true"/>
    </junctions>

</netconvertConfiguration>
-->

<net version="1.20" junctionCornerDetail="5" limitTurnSpeed="5.50" xmlns:xsi="http://www.w3.org/2001/XMLSchema-instance" xsi:noNamespaceSchemaLocation="http://sumo.dlr.de/xsd/net_file.xsd">

    <location netOffset="-444209.57,-5409115.93" convBoundary="0.00,0.00,7038.17,4631.09" origBoundary="2.239780,48.832513,2.335153,48.874683" projParameter="+proj=utm +zone=31 +ellps=WGS84 +datum=WGS84 +units=m +no_defs"/>

    <type id="highway.cycleway" priority="1" numLanes="1" speed="5.56" allow="bicycle" oneway="0" width="2.00"/>
    <type id="highway.footway" priority="1" numLanes="1" speed="2.78" allow="pedestrian" oneway="1" width="2.00"/>
    <type id="highway.pedestrian" priority="1" numLanes="1" speed="2.78" allow="pedestrian" oneway="1" width="2.00"/>
    <type id="highway.residential" priority="3" numLanes="1" speed="13.89" disallow="tram rail_urban rail rail_electric rail_fast ship container cable_car subway aircraft wheelchair scooter drone" oneway="0"/>
    <type id="highway.secondary" priority="11" numLanes="1" speed="27.78" disallow="tram rail_urban rail rail_electric rail_fast ship container cable_car subway aircraft wheelchair scooter drone" oneway="0"/>
    <type id="highway.service" priority="1" numLanes="1" speed="5.56" allow="pedestrian delivery bicycle" oneway="0"/>
    <type id="highway.steps" priority="1" numLanes="1" speed="1.39" allow="pedestrian" oneway="1" width="2.00"/>
    <type id="highway.tertiary" priority="10" numLanes="1" speed="22.22" disallow="tram rail_urban rail rail_electric rail_fast ship container cable_car subway aircraft wheelchair scooter drone" oneway="0"/>
    <type id="railway.subway" priority="18" numLanes="1" speed="27.78" allow="subway" oneway="1"/>

    <edge id=":11007348632_0" function="internal">
        <lane id=":11007348632_0_0" index="0" disallow="tram rail_urban rail rail_electric rail_fast ship container cable_car subway aircraft wheelchair scooter drone" speed="8.33" length="5.20" shape="3297.25,3776.22 3299.51,3780.90"/>
    </edge>
    <edge id=":11730245740_0" function="internal">
        <lane id=":11730245740_0_0" index="0" allow="bicycle" speed="5.56" length="3.23" width="1.00" shape="3564.69,3388.61 3564.02,3389.15 3563.35,3389.20 3562.60,3389.15 3561.69,3389.42"/>
    </edge>
    <edge id=":11730245746_0" function="internal">
        <lane id=":11730245746_0_0" index="0" allow="bicycle" speed="5.56" length="0.74" width="1.00" shape="3531.64,3410.56 3531.44,3410.66 3531.31,3410.75 3531.17,3410.81 3530.96,3410.85"/>
    </edge>
    <edge id=":12182632436_0" function="internal">
        <lane id=":12182632436_0_0" index="0" allow="pedestrian delivery bicycle" speed="8.33" length="5.33" shape="3397.32,3480.89 3392.10,3479.86"/>
    </edge>
    <edge id=":12823319670_0" function="internal">
        <lane id=":12823319670_0_0" index="0" allow="subway" speed="27.78" length="15.70" shape="3578.81,3476.54 3579.35,3480.38 3579.98,3484.34 3580.89,3488.22 3582.25,3491.80"/>
    </edge>
    <edge id=":12823319670_1" function="internal">
        <lane id=":12823319670_1_0" index="0" allow="subway" speed="27.78" length="15.70" shape="3575.37,3477.70 3582.25,3491.80"/>
    </edge>
    <edge id=":12823319674_0" function="internal">
        <lane id=":12823319674_0_0" index="0" allow="subway" speed="27.78" length="13.23" shape="3486.36,3368.59 3499.58,3367.95"/>
    </edge>
    <edge id=":12823319674_1" function="internal">
        <lane id=":12823319674_1_0" index="0" allow="subway" speed="27.78" length="13.23" shape="3486.36,3368.59 3489.79,3368.76 3492.83,3369.48 3495.84,3370.50 3499.17,3371.56"/>
    </edge>
    <edge id=":12823319675_0" function="internal">
        <lane id=":12823319675_0_0" index="0" allow="subway" speed="2.87" length="1.63" shape="3274.51,3394.40 3273.96,3394.62 3273.79,3394.74 3274.00,3394.76 3274.61,3394.68"/>
    </edge>
    <edge id=":12823319675_1" function="internal">
        <lane id=":12823319675_1_0" index="0" allow="subway" speed="27.78" length="2.81" shape="3271.84,3395.14 3274.61,3394.68"/>
    </edge>
    <edge id=":12823319677_0" function="internal">
        <lane id=":12823319677_0_0" index="0" allow="subway" speed="27.78" length="2.94" shape="3477.20,3254.69 3476.69,3251.79"/>
    </edge>
    <edge id=":1524853508_0" function="internal">
        <lane id=":1524853508_0_0" index="0" disallow="tram rail_urban rail rail_electric rail_fast ship container cable_car subway aircraft wheelchair scooter drone" speed="8.33" length="5.03" shape="3428.27,3353.22 3433.22,3352.23"/>
        <lane id=":1524853508_0_1" index="1" disallow="tram rail_urban rail rail_electric rail_fast ship container cable_car subway aircraft wheelchair scooter drone" speed="8.33" length="5.03" shape="3428.91,3356.36 3433.83,3355.37"/>
    </edge>
    <edge id=":1524853515_0" function="internal">
        <lane id=":1524853515_0_0" index="0" disallow="tram rail_urban rail rail_electric rail_fast ship container cable_car subway aircraft wheelchair scooter drone" speed="8.33" length="4.08" shape="3437.05,3373.64 3433.03,3374.38"/>
        <lane id=":1524853515_0_1" index="1" disallow="tram rail_urban rail rail_electric rail_fast ship container cable_car subway aircraft wheelchair scooter drone" speed="8.33" length="4.08" shape="3436.47,3370.50 3432.46,3371.23"/>
    </edge>
    <edge id=":1524853515_2" function="internal">
        <lane id=":1524853515_2_0" index="0" allow="pedestrian delivery bicycle" speed="4.80" length="3.79" shape="3436.47,3370.50 3435.81,3370.22 3435.30,3369.37 3434.90,3368.31 3434.59,3367.41"/>
    </edge>
    <edge id=":1987166918_0" function="internal">
        <lane id=":1987166918_0_0" index="0" disallow="tram rail_urban rail rail_electric rail_fast ship container cable_car subway aircraft wheelchair scooter drone" speed="8.33" length="4.77" shape="3462.63,3400.15 3459.32,3403.58"/>
    </edge>
    <edge id=":1987166918_1" function="internal">
        <lane id=":1987166918_1_0" index="0" disallow="tram rail_urban rail rail_electric rail_fast ship container cable_car subway aircraft wheelchair scooter drone" speed="8.33" length="4.65" shape="3457.06,3401.32 3460.29,3397.97"/>
    </edge>
    <edge id=":25623999_0" function="internal">
        <lane id=":25623999_0_0" index="0" disallow="tram rail_urban rail rail_electric rail_fast ship container cable_car subway aircraft wheelchair scooter drone" speed="7.64" length="9.35" shape="3682.61,3704.71 3681.48,3703.19 3679.73,3702.18 3677.35,3701.67 3674.35,3701.66"/>
    </edge>
    <edge id=":25623999_1" function="internal">
        <lane id=":25623999_1_0" index="0" allow="pedestrian delivery bicycle" speed="8.33" length="10.67" shape="3682.61,3704.71 3681.18,3702.00 3679.73,3700.31 3677.80,3699.12 3674.94,3697.91"/>
    </edge>
    <edge id=":25623999_2" function="internal">
        <lane id=":25623999_2_0" index="0" disallow="tram rail_urban rail rail_electric rail_fast ship container cable_car subway aircraft wheelchair scooter drone" speed="8.33" length="10.73" shape="3682.61,3704.71 3677.96,3695.04"/>
    </edge>
    <edge id=":25623999_3" function="internal">
        <lane id=":25623999_3_0" index="0" disallow="tram rail_urban rail rail_electric rail_fast ship container cable_car subway aircraft wheelchair scooter drone" speed="3.65" length="4.67" shape="3682.61,3704.71 3682.83,3703.29 3683.40,3702.59 3684.29,3702.62 3685.52,3703.38"/>
    </edge>
    <edge id=":25623999_4" function="internal">
        <lane id=":25623999_4_0" index="0" disallow="tram rail_urban rail rail_electric rail_fast ship container cable_car subway aircraft wheelchair scooter drone" speed="8.33" length="10.81" shape="3680.84,3693.63 3685.52,3703.38"/>
    </edge>
    <edge id=":25623999_5" function="internal">
        <lane id=":25623999_5_0" index="0" disallow="tram rail_urban rail rail_electric rail_fast ship container cable_car subway aircraft wheelchair scooter drone" speed="6.85" length="13.10" shape="3680.84,3693.63 3681.77,3696.87 3681.00,3699.29 3678.53,3700.88 3674.35,3701.66"/>
    </edge>
    <edge id=":25623999_6" function="internal">
        <lane id=":25623999_6_0" index="0" allow="pedestrian delivery bicycle" speed="5.96" length="12.18" shape="3680.84,3693.63 3682.00,3697.02 3681.40,3698.86 3679.05,3699.16 3674.94,3697.91"/>
    </edge>
    <edge id=":25623999_7" function="internal">
        <lane id=":25623999_7_0" index="0" disallow="tram rail_urban rail rail_electric rail_fast ship container cable_car subway aircraft wheelchair scooter drone" speed="3.65" length="4.67" shape="3680.84,3693.63 3680.65,3695.06 3680.11,3695.77 3679.21,3695.77 3677.96,3695.04"/>
    </edge>
    <edge id=":258175263_0" function="internal">
        <lane id=":258175263_0_0" index="0" allow="pedestrian delivery bicycle" speed="3.65" length="4.67" shape="3531.02,3631.47 3532.34,3632.04 3532.87,3632.76 3532.62,3633.62 3531.58,3634.61"/>
    </edge>
    <edge id=":270731910_0" function="internal">
        <lane id=":270731910_0_0" index="0" disallow="tram rail_urban rail rail_electric rail_fast ship container cable_car subway aircraft wheelchair scooter drone" speed="8.33" length="6.24" shape="3546.59,3434.59 3543.85,3428.97"/>
        <lane id=":270731910_0_1" index="1" disallow="tram rail_urban rail rail_electric rail_fast ship container cable_car subway aircraft wheelchair scooter drone" speed="8.33" length="6.24" shape="3549.47,3433.17 3546.73,3427.58"/>
    </edge>
    <edge id=":270731910_2" function="internal">
        <lane id=":270731910_2_0" index="0" disallow="tram rail_urban rail rail_electric rail_fast ship container cable_car subway aircraft wheelchair scooter drone" speed="8.33" length="6.21" shape="3549.61,3426.18 3552.34,3431.76"/>
    </edge>
    <edge id=":270731910_3" function="internal">
        <lane id=":270731910_3_0" index="0" allow="pedestrian delivery bicycle" speed="5.55" length="5.32" shape="3542.33,3433.59 3543.45,3432.51 3544.08,3431.39 3544.21,3430.21 3543.85,3428.97"/>
    </edge>
    <edge id=":270731910_4" function="internal">
        <lane id=":270731910_4_0" index="0" allow="pedestrian delivery bicycle" speed="6.83" length="11.57" shape="3542.33,3433.59 3545.93,3431.20 3548.80,3430.10 3550.93,3430.29 3552.34,3431.76"/>
    </edge>
    <edge id=":277410140_0" function="internal">
        <lane id=":277410140_0_0" index="0" allow="pedestrian delivery bicycle" speed="8.03" length="6.79" shape="3440.50,3422.46 3439.83,3423.47 3439.43,3424.89 3439.28,3426.73 3439.40,3428.98"/>
    </edge>
    <edge id=":277410140_1" function="internal">
        <lane id=":277410140_1_0" index="0" disallow="tram rail_urban rail rail_electric rail_fast ship container cable_car subway aircraft wheelchair scooter drone" speed="8.33" length="7.20" shape="3440.50,3422.46 3435.46,3427.60"/>
    </edge>
    <edge id=":277410140_2" function="internal">
        <lane id=":277410140_2_0" index="0" allow="pedestrian delivery bicycle" speed="8.17" length="6.82" shape="3431.71,3421.47 3433.95,3421.53 3435.79,3421.34 3437.21,3420.90 3438.23,3420.20"/>
    </edge>
    <edge id=":277410140_3" function="internal">
        <lane id=":277410140_3_0" index="0" allow="pedestrian delivery bicycle" speed="7.87" length="11.85" shape="3431.71,3421.47 3434.81,3422.14 3437.13,3423.61 3438.66,3425.89 3439.40,3428.98"/>
    </edge>
    <edge id=":277410140_4" function="internal">
        <lane id=":277410140_4_0" index="0" allow="pedestrian delivery bicycle" speed="5.82" length="10.74" shape="3431.71,3421.47 3435.34,3422.11 3437.18,3423.35 3437.22,3425.18 3435.46,3427.60"/>
    </edge>
    <edge id=":277410140_5" function="internal">
        <lane id=":277410140_5_0" index="0" disallow="tram rail_urban rail rail_electric rail_fast ship container cable_car subway aircraft wheelchair scooter drone" speed="8.33" length="7.23" shape="3433.17,3425.37 3438.23,3420.20"/>
    </edge>
    <edge id=":277410140_6" function="internal">
        <lane id=":277410140_6_0" index="0" allow="pedestrian delivery bicycle" speed="5.82" length="3.14" shape="3433.17,3425.37 3435.56,3423.55 3435.70,3423.55"/>
    </edge>
    <edge id=":277410140_7" function="internal">
        <lane id=":277410140_7_0" index="0" allow="pedestrian delivery bicycle" speed="5.82" length="7.60" shape="3435.70,3423.55 3437.39,3423.55 3438.67,3425.36 3439.40,3428.98"/>
    </edge>
    <edge id=":34816435_0" function="internal">
        <lane id=":34816435_0_0" index="0" disallow="tram rail_urban rail rail_electric rail_fast ship container cable_car subway aircraft wheelchair scooter drone" speed="7.23" length="8.25" shape="3241.12,3627.55 3242.63,3629.45 3244.27,3630.69 3246.05,3631.25 3247.95,3631.15"/>
    </edge>
    <edge id=":34816435_1" function="internal">
        <lane id=":34816435_1_0" index="0" disallow="tram rail_urban rail rail_electric rail_fast ship container cable_car subway aircraft wheelchair scooter drone" speed="8.33" length="10.23" shape="3241.12,3627.55 3242.64,3630.12 3243.31,3632.11 3243.35,3634.24 3242.96,3637.23"/>
    </edge>
    <edge id=":34816437_0" function="internal">
        <lane id=":34816437_0_0" index="0" disallow="tram rail_urban rail rail_electric rail_fast ship container cable_car subway aircraft wheelchair scooter drone" speed="7.13" length="8.36" shape="3239.10,3644.86 3237.59,3646.71 3236.79,3648.58 3236.70,3650.49 3237.31,3652.43"/>
    </edge>
    <edge id=":34816437_1" function="internal">
        <lane id=":34816437_1_0" index="0" disallow="tram rail_urban rail rail_electric rail_fast ship container cable_car subway aircraft wheelchair scooter drone" speed="8.33" length="10.20" shape="3239.10,3644.86 3236.92,3646.93 3235.19,3648.14 3233.19,3648.78 3230.23,3649.16"/>
    </edge>
    <edge id=":34816439_0" function="internal">
        <lane id=":34816439_0_0" index="0" disallow="tram rail_urban rail rail_electric rail_fast ship container cable_car subway aircraft wheelchair scooter drone" speed="8.33" length="8.58" shape="3226.29,3649.03 3223.68,3648.49 3221.54,3647.71 3219.88,3646.72 3218.69,3645.51"/>
    </edge>
    <edge id=":34816439_1" function="internal">
        <lane id=":34816439_1_0" index="0" disallow="tram rail_urban rail rail_electric rail_fast ship container cable_car subway aircraft wheelchair scooter drone" speed="6.66" length="6.70" shape="3218.90,3651.78 3219.64,3650.20 3219.85,3648.62 3219.53,3647.06 3218.69,3645.51"/>
    </edge>
    <edge id=":34816441_0" function="internal">
        <lane id=":34816441_0_0" index="0" disallow="tram rail_urban rail rail_electric rail_fast ship container cable_car subway aircraft wheelchair scooter drone" speed="6.03" length="6.81" shape="3218.57,3645.35 3217.49,3644.35 3216.09,3643.96 3214.39,3644.18 3212.38,3645.01"/>
    </edge>
    <edge id=":34816441_1" function="internal">
        <lane id=":34816441_1_0" index="0" disallow="tram rail_urban rail rail_electric rail_fast ship container cable_car subway aircraft wheelchair scooter drone" speed="8.33" length="11.26" shape="3218.57,3645.35 3216.74,3642.74 3215.51,3640.59 3214.73,3638.28 3214.27,3635.16"/>
    </edge>
    <edge id=":34816441_2" function="internal">
        <lane id=":34816441_2_0" index="0" disallow="tram rail_urban rail rail_electric rail_fast ship container cable_car subway aircraft wheelchair scooter drone" speed="7.35" length="8.30" shape="3210.90,3642.18 3212.55,3640.98 3213.66,3639.42 3214.24,3637.47 3214.27,3635.16"/>
    </edge>
    <edge id=":34816443_0" function="internal">
        <lane id=":34816443_0_0" index="0" disallow="tram rail_urban rail rail_electric rail_fast ship container cable_car subway aircraft wheelchair scooter drone" speed="6.73" length="6.82" shape="3211.95,3625.05 3213.64,3625.76 3215.27,3625.95 3216.84,3625.59 3218.35,3624.71"/>
    </edge>
    <edge id=":34816443_1" function="internal">
        <lane id=":34816443_1_0" index="0" disallow="tram rail_urban rail rail_electric rail_fast ship container cable_car subway aircraft wheelchair scooter drone" speed="8.33" length="8.64" shape="3214.57,3632.09 3214.97,3629.57 3215.47,3627.82 3216.47,3626.36 3218.35,3624.71"/>
    </edge>
    <edge id=":34816444_0" function="internal">
        <lane id=":34816444_0_0" index="0" disallow="tram rail_urban rail rail_electric rail_fast ship container cable_car subway aircraft wheelchair scooter drone" speed="6.13" length="7.07" shape="3218.50,3624.59 3219.55,3623.39 3219.94,3621.92 3219.68,3620.19 3218.77,3618.18"/>
    </edge>
    <edge id=":34816444_1" function="internal">
        <lane id=":34816444_1_0" index="0" disallow="tram rail_urban rail rail_electric rail_fast ship container cable_car subway aircraft wheelchair scooter drone" speed="8.33" length="8.42" shape="3218.50,3624.59 3220.46,3623.04 3221.89,3622.04 3223.45,3621.36 3225.85,3620.76"/>
    </edge>
    <edge id=":34816446_0" function="internal">
        <lane id=":34816446_0_0" index="0" disallow="tram rail_urban rail rail_electric rail_fast ship container cable_car subway aircraft wheelchair scooter drone" speed="6.63" length="7.73" shape="3238.37,3618.59 3237.78,3619.75 3237.84,3621.33 3238.56,3623.31 3239.92,3625.70"/>
    </edge>
    <edge id=":34816446_1" function="internal">
        <lane id=":34816446_1_0" index="0" disallow="tram rail_urban rail rail_electric rail_fast ship container cable_car subway aircraft wheelchair scooter drone" speed="8.33" length="10.26" shape="3226.96,3620.52 3229.96,3619.94 3232.04,3619.42 3233.86,3618.41 3236.05,3616.39"/>
    </edge>
    <edge id=":34816446_2" function="internal">
        <lane id=":34816446_2_0" index="0" disallow="tram rail_urban rail rail_electric rail_fast ship container cable_car subway aircraft wheelchair scooter drone" speed="8.33" length="14.93" shape="3226.96,3620.52 3230.93,3620.17 3234.41,3620.92 3237.41,3622.76 3239.92,3625.70"/>
    </edge>
    <edge id=":34816712_0" function="internal">
        <lane id=":34816712_0_0" index="0" disallow="tram rail_urban rail rail_electric rail_fast ship container cable_car subway aircraft wheelchair scooter drone" speed="3.65" length="4.67" shape="2996.35,3757.24 2994.92,3757.07 2994.20,3756.53 2994.20,3755.64 2994.91,3754.38"/>
    </edge>
    <edge id=":368307_0" function="internal">
        <lane id=":368307_0_0" index="0" disallow="tram rail_urban rail rail_electric rail_fast ship container cable_car subway aircraft wheelchair scooter drone" speed="3.65" length="4.67" shape="3720.18,3776.11 3719.98,3777.54 3719.43,3778.24 3718.54,3778.23 3717.30,3777.49"/>
    </edge>
    <edge id=":4937276951_0" function="internal">
        <lane id=":4937276951_0_0" index="0" disallow="tram rail_urban rail rail_electric rail_fast ship container cable_car subway aircraft wheelchair scooter drone" speed="8.33" length="8.41" shape="3562.53,3459.74 3560.98,3457.76 3559.30,3456.87 3557.63,3455.98 3556.10,3453.99"/>
        <lane id=":4937276951_0_1" index="1" disallow="tram rail_urban rail rail_electric rail_fast ship container cable_car subway aircraft wheelchair scooter drone" speed="8.33" length="8.41" shape="3562.53,3459.74 3558.97,3452.57"/>
    </edge>
    <edge id=":4937276951_2" function="internal">
        <lane id=":4937276951_2_0" index="0" disallow="tram rail_urban rail rail_electric rail_fast ship container cable_car subway aircraft wheelchair scooter drone" speed="8.33" length="7.98" shape="3561.84,3451.16 3565.39,3458.30"/>
    </edge>
    <edge id=":506888656_0" function="internal">
        <lane id=":506888656_0_0" index="0" allow="pedestrian delivery bicycle" speed="5.56" length="9.70" shape="3330.62,3361.12 3321.08,3362.86"/>
    </edge>
    <edge id=":506888656_1" function="internal">
        <lane id=":506888656_1_0" index="0" allow="pedestrian delivery bicycle" speed="5.56" length="11.73" shape="3330.62,3361.12 3327.26,3361.26 3324.98,3360.23 3323.78,3358.04 3323.66,3354.68"/>
    </edge>
    <edge id=":506888656_2" function="internal">
        <lane id=":506888656_2_0" index="0" allow="pedestrian delivery bicycle" speed="3.65" length="4.67" shape="3330.62,3361.12 3329.30,3360.55 3328.76,3359.84 3329.01,3358.98 3330.04,3357.97"/>
    </edge>
    <edge id=":506888656_3" function="internal">
        <lane id=":506888656_3_0" index="0" allow="pedestrian delivery bicycle" speed="4.79" length="5.39" shape="3326.84,3355.01 3326.90,3356.56 3327.45,3357.56 3328.50,3358.04 3330.04,3357.97"/>
    </edge>
    <edge id=":506888656_4" function="internal">
        <lane id=":506888656_4_0" index="0" allow="pedestrian delivery bicycle" speed="5.56" length="10.50" shape="3326.84,3355.01 3326.20,3358.11 3325.03,3360.45 3323.32,3362.03 3321.08,3362.86"/>
    </edge>
    <edge id=":506888656_5" function="internal">
        <lane id=":506888656_5_0" index="0" allow="pedestrian delivery bicycle" speed="3.65" length="4.67" shape="3326.84,3355.01 3325.92,3356.12 3325.08,3356.44 3324.33,3355.95 3323.66,3354.68"/>
    </edge>
    <edge id=":506888656_6" function="internal">
        <lane id=":506888656_6_0" index="0" allow="pedestrian delivery bicycle" speed="5.56" length="6.36" shape="3320.51,3359.71 3321.71,3359.22 3322.63,3358.21 3323.28,3356.70 3323.66,3354.68"/>
    </edge>
    <edge id=":506888656_7" function="internal">
        <lane id=":506888656_7_0" index="0" allow="pedestrian delivery bicycle" speed="5.56" length="9.68" shape="3320.51,3359.71 3330.04,3357.97"/>
    </edge>
    <edge id=":506888656_8" function="internal">
        <lane id=":506888656_8_0" index="0" allow="pedestrian delivery bicycle" speed="3.65" length="4.67" shape="3320.51,3359.71 3321.84,3360.29 3322.37,3361.00 3322.12,3361.86 3321.08,3362.86"/>
    </edge>
    <edge id=":506888666_0" function="internal">
        <lane id=":506888666_0_0" index="0" allow="pedestrian delivery bicycle" speed="3.65" length="4.67" shape="3425.33,3340.33 3426.65,3340.89 3427.19,3341.61 3426.95,3342.47 3425.91,3343.47"/>
    </edge>
    <edge id=":506888704_0" function="internal">
        <lane id=":506888704_0_0" index="0" allow="pedestrian delivery bicycle" speed="3.65" length="4.67" shape="3291.63,3294.08 3292.53,3292.96 3293.37,3292.64 3294.13,3293.11 3294.81,3294.38"/>
    </edge>
    <edge id=":5474974286_0" function="internal">
        <lane id=":5474974286_0_0" index="0" disallow="tram rail_urban rail rail_electric rail_fast ship container cable_car subway aircraft wheelchair scooter drone" speed="8.33" length="6.27" shape="3606.21,3548.78 3603.43,3543.15"/>
    </edge>
    <edge id=":5474974286_1" function="internal">
        <lane id=":5474974286_1_0" index="0" allow="pedestrian delivery bicycle" speed="5.08" length="5.04" shape="3610.48,3543.13 3609.34,3543.94 3608.73,3544.91 3608.64,3546.04 3609.07,3547.34"/>
    </edge>
    <edge id=":5474974286_2" function="internal">
        <lane id=":5474974286_2_0" index="0" allow="pedestrian delivery bicycle" speed="6.05" length="7.84" shape="3610.48,3543.13 3607.93,3544.23 3605.90,3544.61 3604.41,3544.25 3603.43,3543.15"/>
    </edge>
    <edge id=":5474974286_3" function="internal">
        <lane id=":5474974286_3_0" index="0" disallow="tram rail_urban rail rail_electric rail_fast ship container cable_car subway aircraft wheelchair scooter drone" speed="8.33" length="6.22" shape="3606.31,3541.76 3609.07,3547.34"/>
    </edge>
    <edge id=":5526066726_0" function="internal">
        <lane id=":5526066726_0_0" index="0" disallow="tram rail_urban rail rail_electric rail_fast ship container cable_car subway aircraft wheelchair scooter drone" speed="8.33" length="5.36" shape="3211.86,3645.28 3207.11,3647.77"/>
    </edge>
    <edge id=":5526066726_1" function="internal">
        <lane id=":5526066726_1_0" index="0" disallow="tram rail_urban rail rail_electric rail_fast ship container cable_car subway aircraft wheelchair scooter drone" speed="8.33" length="5.36" shape="3205.63,3644.93 3210.38,3642.45"/>
    </edge>
    <edge id=":5526066727_0" function="internal">
        <lane id=":5526066727_0_0" index="0" disallow="tram rail_urban rail rail_electric rail_fast ship container cable_car subway aircraft wheelchair scooter drone" speed="8.33" length="5.02" shape="3215.97,3656.49 3218.62,3652.22"/>
    </edge>
    <edge id=":5526066728_0" function="internal">
        <lane id=":5526066728_0_0" index="0" disallow="tram rail_urban rail rail_electric rail_fast ship container cable_car subway aircraft wheelchair scooter drone" speed="8.33" length="5.03" shape="3237.35,3652.52 3239.56,3657.04"/>
    </edge>
    <edge id=":5526066729_0" function="internal">
        <lane id=":5526066729_0_0" index="0" disallow="tram rail_urban rail rail_electric rail_fast ship container cable_car subway aircraft wheelchair scooter drone" speed="8.33" length="5.03" shape="3248.26,3631.09 3253.18,3630.06"/>
    </edge>
    <edge id=":5526066731_0" function="internal">
        <lane id=":5526066731_0_0" index="0" disallow="tram rail_urban rail rail_electric rail_fast ship container cable_car subway aircraft wheelchair scooter drone" speed="8.33" length="6.28" shape="3218.23,3617.26 3215.07,3611.84"/>
    </edge>
    <edge id=":6803002591_0" function="internal">
        <lane id=":6803002591_0_0" index="0" disallow="tram rail_urban rail rail_electric rail_fast ship container cable_car subway aircraft wheelchair scooter drone" speed="8.33" length="5.09" shape="3296.90,3789.31 3292.32,3791.53"/>
    </edge>
    <edge id=":8120653318_0" function="internal">
        <lane id=":8120653318_0_0" index="0" allow="pedestrian delivery bicycle" speed="5.56" length="4.99" shape="3568.34,3439.06 3570.53,3443.54"/>
    </edge>
    <edge id=":8120653319_0" function="internal">
        <lane id=":8120653319_0_0" index="0" allow="pedestrian delivery bicycle" speed="8.33" length="5.00" shape="3549.62,3457.23 3547.39,3452.75"/>
    </edge>
    <edge id=":929440570_0" function="internal">
        <lane id=":929440570_0_0" index="0" allow="pedestrian delivery bicycle" speed="8.33" length="7.33" shape="3612.74,3579.89 3612.52,3577.75 3612.09,3576.32 3611.32,3575.01 3610.05,3573.25"/>
    </edge>
    <edge id=":929440570_1" function="internal">
        <lane id=":929440570_1_0" index="0" allow="pedestrian delivery bicycle" speed="4.68" length="5.86" shape="3608.26,3577.11 3609.98,3576.74 3610.85,3575.97 3610.88,3574.81 3610.05,3573.25"/>
    </edge>
    <edge id=":929442917_0" function="internal">
        <lane id=":929442917_0_0" index="0" disallow="tram rail_urban rail rail_electric rail_fast ship container cable_car subway aircraft wheelchair scooter drone" speed="8.33" length="6.23" shape="3549.59,3440.75 3546.87,3435.15"/>
        <lane id=":929442917_0_1" index="1" disallow="tram rail_urban rail rail_electric rail_fast ship container cable_car subway aircraft wheelchair scooter drone" speed="8.33" length="6.23" shape="3552.47,3439.36 3549.75,3433.74"/>
    </edge>
    <edge id=":929442917_2" function="internal">
        <lane id=":929442917_2_0" index="0" allow="pedestrian delivery bicycle" speed="5.88" length="8.47" shape="3552.47,3439.36 3552.07,3437.58 3552.74,3436.10 3554.48,3434.93 3557.27,3434.05"/>
    </edge>
    <edge id=":929442917_3" function="internal">
        <lane id=":929442917_3_0" index="0" allow="pedestrian delivery bicycle" speed="5.68" length="5.39" shape="3552.62,3432.33 3553.36,3433.36 3554.39,3434.00 3555.69,3434.23 3557.27,3434.05"/>
    </edge>
    <edge id=":929442917_4" function="internal">
        <lane id=":929442917_4_0" index="0" disallow="tram rail_urban rail rail_electric rail_fast ship container cable_car subway aircraft wheelchair scooter drone" speed="8.33" length="6.28" shape="3552.62,3432.33 3555.35,3437.98"/>
    </edge>
    <edge id=":932282708_0" function="internal">
        <lane id=":932282708_0_0" index="0" allow="pedestrian delivery bicycle" speed="3.65" length="4.67" shape="3409.83,3437.97 3408.42,3438.27 3407.57,3437.99 3407.28,3437.14 3407.55,3435.73"/>
    </edge>
    <edge id=":932282726_0" function="internal">
        <lane id=":932282726_0_0" index="0" allow="pedestrian delivery bicycle" speed="8.33" length="5.78" shape="3423.00,3420.90 3428.77,3421.24"/>
    </edge>
    <edge id=":932282726_1" function="internal">
        <lane id=":932282726_1_0" index="0" allow="pedestrian delivery bicycle" speed="3.83" length="3.89" shape="3423.00,3420.90 3424.50,3421.02 3425.33,3421.35 3425.48,3421.90 3424.96,3422.66"/>
    </edge>
    <edge id=":932282726_2" function="internal">
        <lane id=":932282726_2_0" index="0" allow="pedestrian delivery bicycle" speed="6.95" length="6.20" shape="3422.68,3420.41 3423.79,3420.23 3425.61,3420.53 3427.49,3420.98 3428.77,3421.24"/>
    </edge>
    <edge id=":932282726_3" function="internal">
        <lane id=":932282726_3_0" index="0" allow="pedestrian delivery bicycle" speed="3.65" length="4.67" shape="3422.68,3420.41 3424.09,3420.12 3424.94,3420.40 3425.23,3421.25 3424.96,3422.66"/>
    </edge>
    <edge id=":932282727_0" function="internal">