<?xml version="1.0" encoding="UTF-8"?>

<!-- generated on 2025-11-15 15:53:07 by Eclipse SUMO netconvert Version 1.24.0
<netconvertConfiguration xmlns:xsi="http://www.w3.org/2001/XMLSchema-instance" xsi:noNamespaceSchemaLocation="http://sumo.dlr.de/xsd/netconvertConfiguration.xsd">

    <input>
        <osm-files value="swiss_alps_mountain.osm"/>
    </input>

    <output>
        <output-file value="all_maps/swiss_alps_mountain.net.xml"/>
    </output>

    <projection>
        <proj.utm value="true"/>
        <proj.plain-geo value="true"/>
    </projection>

</netconvertConfiguration>
-->

<net version="1.20" junctionCornerDetail="5" limitTurnSpeed="5.50" xmlns:xsi="http://www.w3.org/2001/XMLSchema-instance" xsi:noNamespaceSchemaLocation="http://sumo.dlr.de/xsd/net_file.xsd">

    <location netOffset="-414010.57,-5152267.99" convBoundary="0.00,0.00,1682.77,1945.40" origBoundary="7.878669,46.518515,7.900556,46.536202" projParameter="+proj=utm +zone=32 +ellps=WGS84 +datum=WGS84 +units=m +no_defs"/>

    <type id="highway.path" priority="1" numLanes="1" speed="5.56" allow="pedestrian bicycle" oneway="0" width="2.00"/>

    <edge id=":10728506771_0" function="internal">
        <lane id=":10728506771_0_0" index="0" allow="pedestrian bicycle" speed="2.89" length="2.92" width="2.00" shape="1079.08,1757.53 1079.49,1758.34 1079.45,1758.90 1078.99,1759.21 1078.09,1759.27"/>
    </edge>
    <edge id=":10728506782_0" function="internal">
        <lane id=":10728506782_0_0" index="0" allow="pedestrian bicycle" speed="2.89" length="2.92" width="2.00" shape="494.15,779.54 493.94,778.67 494.10,778.13 494.63,777.93 495.52,778.08"/>
    </edge>
    <edge id=":1408362727_0" function="internal">
        <lane id=":1408362727_0_0" index="0" allow="pedestrian bicycle" speed="2.89" length="2.92" width="2.00" shape="354.78,15.00 355.36,15.69 355.47,16.23 355.09,16.65 354.23,16.93"/>
    </edge>
    <edge id=":1408363077_0" function="internal">
        <lane id=":1408363077_0_0" index="0" allow="pedestrian bicycle" speed="4.18" length="4.17" width="2.00" shape="878.52,1120.54 878.11,1119.43 877.47,1118.80 876.58,1118.67 875.45,1119.03"/>
    </edge>
    <edge id=":1408363077_1" function="internal">
        <lane id=":1408363077_1_0" index="0" allow="pedestrian bicycle" speed="5.56" length="6.85" width="2.00" shape="878.52,1120.54 878.07,1118.56 877.83,1117.15 877.94,1115.76 878.52,1113.85"/>
    </edge>
    <edge id=":1408363077_2" function="internal">
        <lane id=":1408363077_2_0" index="0" allow="pedestrian bicycle" speed="2.89" length="2.92" width="2.00" shape="878.52,1120.54 878.85,1119.71 879.29,1119.36 879.83,1119.50 880.48,1120.13"/>
    </edge>
    <edge id=":1408363077_3" function="internal">
        <lane id=":1408363077_3_0" index="0" allow="pedestrian bicycle" speed="5.56" length="5.73" width="2.00" shape="880.40,1114.54 879.93,1116.14 879.86,1117.30 880.09,1118.47 880.48,1120.13"/>
    </edge>
    <edge id=":1408363077_4" function="internal">
        <lane id=":1408363077_4_0" index="0" allow="pedestrian bicycle" speed="5.56" length="6.98" width="2.00" shape="880.40,1114.54 879.56,1116.36 878.62,1117.42 877.33,1118.16 875.45,1119.03"/>
    </edge>
    <edge id=":1408363077_5" function="internal">
        <lane id=":1408363077_5_0" index="0" allow="pedestrian bicycle" speed="2.89" length="2.92" width="2.00" shape="880.40,1114.54 879.67,1115.07 879.12,1115.13 878.73,1114.73 878.52,1113.85"/>
    </edge>
    <edge id=":1408363077_6" function="internal">
        <lane id=":1408363077_6_0" index="0" allow="pedestrian bicycle" speed="5.56" length="5.43" width="2.00" shape="874.58,1117.23 876.05,1116.57 877.09,1116.03 877.86,1115.25 878.52,1113.85"/>
    </edge>
    <edge id=":1408363077_7" function="internal">
        <lane id=":1408363077_7_0" index="0" allow="pedestrian bicycle" speed="5.56" length="8.01" width="2.00" shape="874.58,1117.23 876.75,1116.54 878.45,1116.79 879.70,1117.99 880.48,1120.13"/>
    </edge>
    <edge id=":1408363077_8" function="internal">
        <lane id=":1408363077_8_0" index="0" allow="pedestrian bicycle" speed="2.89" length="2.92" width="2.00" shape="874.58,1117.23 875.47,1117.35 875.91,1117.70 875.90,1118.26 875.45,1119.03"/>
    </edge>
    <edge id=":1408363389_0" function="internal">
        <lane id=":1408363389_0_0" index="0" allow="pedestrian bicycle" speed="5.56" length="11.56" width="2.00" shape="785.19,1477.17 784.43,1474.35 782.46,1472.66 780.14,1471.03 778.31,1468.38"/>
    </edge>
    <edge id=":1408363389_1" function="internal">
        <lane id=":1408363389_1_0" index="0" allow="pedestrian bicycle" speed="5.50" length="7.60" width="2.00" shape="785.19,1477.17 785.48,1474.39 786.14,1472.53 787.18,1471.56 788.60,1471.50"/>
    </edge>
    <edge id=":1408363389_2" function="internal">
        <lane id=":1408363389_2_0" index="0" allow="pedestrian bicycle" speed="3.27" length="2.99" width="2.00" shape="785.19,1477.17 785.06,1476.25 785.27,1475.72 785.83,1475.57 786.72,1475.80"/>
    </edge>
    <edge id=":1408363389_3" function="internal">
        <lane id=":1408363389_3_0" index="0" allow="pedestrian bicycle" speed="4.02" length="5.65" width="2.00" shape="788.12,1473.45 786.22,1473.15 785.35,1473.44 785.52,1474.32 786.72,1475.80"/>
    </edge>
    <edge id=":1408363389_4" function="internal">
        <lane id=":1408363389_4_0" index="0" allow="pedestrian bicycle" speed="5.56" length="11.32" width="2.00" shape="788.12,1473.45 784.23,1472.32 781.30,1471.10 779.33,1469.79 778.31,1468.38"/>
    </edge>
    <edge id=":1408363389_5" function="internal">
        <lane id=":1408363389_5_0" index="0" allow="pedestrian bicycle" speed="2.89" length="2.92" width="2.00" shape="788.12,1473.45 787.51,1472.78 787.39,1472.24 787.75,1471.81 788.60,1471.50"/>
    </edge>
    <edge id=":1408363389_6" function="internal">
        <lane id=":1408363389_6_0" index="0" allow="pedestrian bicycle" speed="5.56" length="9.41" width="2.00" shape="780.19,1467.70 780.98,1468.65 782.64,1469.60 785.18,1470.55 788.60,1471.50"/>
    </edge>
    <edge id=":1408363389_7" function="internal">
        <lane id=":1408363389_7_0" index="0" allow="pedestrian bicycle" speed="5.56" length="10.56" width="2.00" shape="780.19,1467.70 781.45,1470.44 782.80,1472.16 784.47,1473.68 786.72,1475.80"/>
    </edge>
    <edge id=":1408363389_8" function="internal">
        <lane id=":1408363389_8_0" index="0" allow="pedestrian bicycle" speed="2.89" length="2.92" width="2.00" shape="780.19,1467.70 779.98,1468.57 779.60,1468.98 779.04,1468.92 778.31,1468.38"/>
    </edge>
    <edge id=":1408363424_0" function="internal">
        <lane id=":1408363424_0_0" index="0" allow="pedestrian bicycle" speed="4.92" length="3.47" width="2.00" shape="793.77,1587.02 792.89,1587.24 792.06,1587.21 791.29,1586.92 790.57,1586.37"/>
    </edge>
    <edge id=":1408363424_1" function="internal">
        <lane id=":1408363424_1_0" index="0" allow="pedestrian bicycle" speed="3.15" length="1.16" width="2.00" shape="791.97,1584.94 792.21,1585.12 792.47,1585.22 792.74,1585.23 793.03,1585.16"/>
    </edge>
    <edge id=":1408514310_0" function="internal">
        <lane id=":1408514310_0_0" index="0" allow="pedestrian bicycle" speed="5.56" length="4.50" width="2.00" shape="895.29,1195.18 894.00,1194.86 893.12,1194.39 892.27,1194.06 891.02,1194.19"/>
    </edge>
    <edge id=":1408514310_1" function="internal">
        <lane id=":1408514310_1_0" index="0" allow="pedestrian bicycle" speed="5.18" length="8.87" width="2.00" shape="895.29,1195.18 893.18,1194.63 892.50,1193.43 893.24,1191.58 895.40,1189.07"/>
    </edge>
    <edge id=":1408514310_2" function="internal">
        <lane id=":1408514310_2_0" index="0" allow="pedestrian bicycle" speed="3.15" length="3.75" width="2.00" shape="895.29,1195.18 895.03,1194.05 895.24,1193.37 895.92,1193.12 897.05,1193.31"/>
    </edge>
    <edge id=":1408514310_3" function="internal">
        <lane id=":1408514310_3_0" index="0" allow="pedestrian bicycle" speed="3.77" length="4.21" width="2.00" shape="896.81,1190.50 895.84,1191.64 895.55,1192.50 895.96,1193.05 897.05,1193.31"/>
    </edge>
    <edge id=":1408514310_4" function="internal">
        <lane id=":1408514310_4_0" index="0" allow="pedestrian bicycle" speed="5.56" length="7.00" width="2.00" shape="896.81,1190.50 895.33,1191.96 894.23,1192.89 892.97,1193.55 891.02,1194.19"/>
    </edge>
    <edge id=":1408514310_5" function="internal">
        <lane id=":1408514310_5_0" index="0" allow="pedestrian bicycle" speed="2.89" length="2.92" width="2.00" shape="896.81,1190.50 895.92,1190.67 895.39,1190.49 895.22,1189.96 895.40,1189.07"/>
    </edge>
    <edge id=":1408514310_6" function="internal">
        <lane id=":1408514310_6_0" index="0" allow="pedestrian bicycle" speed="5.56" length="6.00" width="2.00" shape="890.45,1192.27 892.12,1191.71 893.20,1191.14 894.14,1190.33 895.40,1189.07"/>
    </edge>
    <edge id=":1408514310_7" function="internal">
        <lane id=":1408514310_7_0" index="0" allow="pedestrian bicycle" speed="5.56" length="6.82" width="2.00" shape="890.45,1192.27 892.37,1192.00 893.71,1192.34 895.07,1192.91 897.05,1193.31"/>
    </edge>
    <edge id=":1408514310_8" function="internal">
        <lane id=":1408514310_8_0" index="0" allow="pedestrian bicycle" speed="2.89" length="2.92" width="2.00" shape="890.45,1192.27 891.31,1192.54 891.69,1192.95 891.60,1193.50 891.02,1194.19"/>
    </edge>
    <edge id=":1408514317_0" function="internal">
        <lane id=":1408514317_0_0" index="0" allow="pedestrian bicycle" speed="5.56" length="0.14" width="2.00" shape="872.14,1203.55 872.10,1203.57 872.07,1203.57 872.05,1203.59 872.01,1203.60"/>
    </edge>
    <edge id=":1408514317_1" function="internal">
        <lane id=":1408514317_1_0" index="0" allow="pedestrian bicycle" speed="5.56" length="0.43" width="2.00" shape="871.21,1201.77 871.33,1201.72 871.41,1201.69 871.49,1201.66 871.62,1201.62"/>
    </edge>
    <edge id=":4340038006_0" function="internal">
        <lane id=":4340038006_0_0" index="0" allow="pedestrian bicycle" speed="2.89" length="2.92" width="2.00" shape="430.84,1103.71 430.22,1103.06 430.09,1102.52 430.44,1102.08 431.28,1101.76"/>
    </edge>
    <edge id=":4340038481_0" function="internal">
        <lane id=":4340038481_0_0" index="0" allow="pedestrian bicycle" speed="2.89" length="2.92" width="2.00" shape="-0.18,1616.52 -0.83,1615.89 -0.98,1615.35 -0.65,1614.91 0.18,1614.55"/>
    </edge>
    <edge id=":442647048_0" function="internal">
        <lane id=":442647048_0_0" index="0" allow="pedestrian bicycle" speed="2.89" length="2.92" width="2.00" shape="1132.08,551.27 1132.14,550.37 1132.45,549.90 1133.01,549.87 1133.82,550.27"/>
    </edge>
    <edge id=":442647150_0" function="internal">
        <lane id=":442647150_0_0" index="0" allow="pedestrian bicycle" speed="2.89" length="2.92" width="2.00" shape="1667.28,1946.15 1666.39,1946.26 1665.87,1946.05 1665.74,1945.51 1665.98,1944.64"/>
    </edge>

    <edge id="-127187416" from="442647150" to="442647048" priority="1" type="highway.path" shape="1666.63,1945.40 1681.43,1932.68 1682.77,1905.13 1677.79,1878.50 1671.47,1879.42 1668.43,1867.78 1663.23,1866.19 1653.36,1860.49 1650.23,1842.19 1643.05,1823.09 1644.49,1802.22 1656.84,1779.53 1649.81,1770.45 1654.22,1756.21 1640.68,1735.54 1641.50,1711.34 1632.72,1701.45 1620.43,1686.61 1612.52,1697.57 1611.02,1672.56 1621.31,1667.42 1625.66,1648.99 1626.47,1623.97 1616.46,1608.26 1604.15,1592.58 1602.14,1571.75 1614.15,1566.58 1605.18,1542.51 1604.82,1516.65 1594.95,1469.25 1597.58,1451.69 1579.09,1430.27 1571.25,1421.20 1572.29,1412.84 1564.65,1402.10 1571.37,1388.67 1575.13,1369.42 1565.95,1330.35 1559.72,1337.11 1551.05,1334.73 1546.14,1313.10 1538.64,1311.54 1514.73,1290.19 1502.04,1288.70 1480.26,1253.96 1472.20,1213.20 1458.44,1175.86 1445.89,1183.54 1425.93,1166.48 1425.37,1170.23 1419.82,1163.34 1416.60,1156.87 1413.93,1161.32 1408.48,1154.22 1408.82,1148.98 1399.71,1129.62 1393.83,1128.68 1391.62,1125.43 1391.13,1119.60 1396.50,1109.98 1397.75,1107.30 1393.43,1100.08 1398.14,1087.70 1403.25,1081.48 1406.32,1073.44 1406.25,1064.52 1397.10,1043.12 1385.02,1032.20 1382.98,1025.98 1372.65,1015.87 1370.93,1010.05 1365.11,1006.08 1347.22,994.99 1348.15,976.76 1332.94,989.60 1323.52,981.49 1320.72,961.73 1315.19,948.79 1299.86,933.93 1295.73,910.91 1289.66,903.92 1282.65,902.28 1275.71,871.44 1263.89,849.91 1252.28,820.35 1245.10,806.82 1232.63,794.63 1229.34,783.35 1223.97,778.71 1223.04,774.42 1216.67,767.53 1215.71,776.31 1212.00,771.95 1207.47,768.54 1207.29,759.20 1203.98,757.60 1202.64,745.98 1179.25,713.35 1166.70,693.42 1168.92,678.80 1167.76,668.53 1150.94,637.12 1153.44,612.74 1146.92,594.89 1147.66,585.75 1149.14,580.71 1148.09,575.35 1145.15,571.37 1143.39,567.30 1140.28,565.49 1137.13,558.04 1132.95,550.77">
        <lane id="-127187416_0" index="0" allow="pedestrian bicycle" speed="5.56" length="1771.35" width="2.00" shape="1665.98,1944.64 1680.45,1932.20 1681.76,1905.20 1676.99,1879.63 1670.73,1880.54 1667.61,1868.58 1662.83,1867.11 1652.46,1861.12 1649.26,1842.45 1642.04,1823.24 1643.51,1801.94 1655.65,1779.62 1648.70,1770.66 1653.12,1756.37 1639.67,1735.82 1640.48,1711.71 1631.96,1702.10 1620.48,1688.24 1611.69,1700.43 1609.98,1671.96 1620.45,1666.73 1624.67,1648.86 1625.46,1624.24 1615.64,1608.84 1603.19,1592.97 1601.07,1571.12 1612.88,1566.04 1604.18,1542.70 1603.82,1516.76 1593.93,1469.28 1596.52,1452.00 1578.33,1430.92 1570.21,1421.52 1571.25,1413.10 1563.49,1402.19 1570.42,1388.34 1574.11,1369.44 1565.41,1332.41 1560.04,1338.23 1550.20,1335.53 1545.30,1313.95 1538.17,1312.46 1514.30,1291.15 1501.45,1289.64 1479.31,1254.34 1471.24,1213.47 1457.93,1177.35 1445.79,1184.77 1426.66,1168.41 1426.02,1172.63 1418.98,1163.88 1416.52,1158.95 1414.04,1163.10 1407.46,1154.53 1407.81,1149.17 1399.03,1130.53 1393.24,1129.60 1390.64,1125.78 1390.11,1119.37 1395.60,1109.53 1396.62,1107.36 1392.32,1100.18 1397.26,1087.19 1402.37,1080.97 1405.32,1073.26 1405.26,1064.72 1396.27,1043.71 1384.16,1032.77 1382.11,1026.52 1371.77,1016.41 1370.07,1010.68 1364.57,1006.91 1346.19,995.53 1347.03,979.01 1332.93,990.91 1322.58,982.00 1319.75,962.00 1314.35,949.37 1298.93,934.42 1294.79,911.36 1289.12,904.82 1281.81,903.11 1274.76,871.80 1262.98,850.33 1251.37,820.77 1244.29,807.42 1231.75,795.17 1228.46,783.92 1223.06,779.24 1222.12,774.90 1217.42,769.82 1216.46,778.73 1211.31,772.68 1206.48,769.04 1206.30,759.84 1203.05,758.27 1201.68,746.35 1178.42,713.91 1165.66,693.64 1167.91,678.78 1166.78,668.84 1149.91,637.32 1152.42,612.87 1145.90,595.02 1146.68,585.57 1148.11,580.66 1147.15,575.77 1144.27,571.87 1142.61,567.99 1139.49,566.19 1136.23,558.48 1132.08,551.27"/>
    </edge>
    <edge id="-127187417" from="1408363077" to="10728506782" priority="1" type="highway.path" shape="878.67,1116.36 874.74,1118.26 866.92,1122.16 863.67,1128.57 857.23,1138.96 856.71,1142.26 854.45,1146.23 844.15,1152.33 837.74,1154.26 840.08,1148.48 835.19,1145.02 836.85,1141.46 826.89,1132.21 818.11,1133.46 799.81,1123.16 816.17,1104.93 814.39,1102.95 815.68,1099.91 819.35,1097.35 816.46,1096.16 820.61,1092.11 818.64,1090.44 822.03,1086.70 822.23,1078.85 807.01,1075.88 807.75,1072.72 804.50,1071.94 808.11,1065.28 805.30,1062.81 806.50,1060.33 804.31,1058.11 805.53,1050.94 800.98,1049.67 799.08,1045.60 795.08,1046.88 796.03,1040.82 785.41,1032.26 785.80,1001.59 781.17,1000.54 775.94,987.58 772.59,989.99 770.72,985.21 764.25,986.76 761.23,982.57 752.58,983.49 745.09,981.50 735.13,967.59 697.11,941.57 627.98,926.67 579.56,872.91 557.97,812.65 521.33,803.54 494.83,778.81">
        <lane id="-127187417_0" index="0" allow="pedestrian bicycle" speed="5.56" length="688.31" width="2.00" shape="875.45,1119.03 875.18,1119.16 867.66,1122.91 864.54,1129.06 858.19,1139.32 857.67,1142.59 855.19,1146.96 844.55,1153.25 836.03,1155.82 838.86,1148.84 833.94,1145.35 835.63,1141.70 826.56,1133.27 817.92,1134.50 798.23,1123.42 814.82,1104.93 813.22,1103.15 814.87,1099.26 817.28,1097.58 814.67,1096.50 819.13,1092.16 817.20,1090.53 821.04,1086.30 821.21,1079.67 805.80,1076.67 806.55,1073.46 803.00,1072.61 806.85,1065.50 804.06,1063.05 805.29,1060.53 803.24,1058.44 804.39,1051.66 800.27,1050.51 798.54,1046.82 793.85,1048.32 794.95,1041.24 784.41,1032.73 784.79,1002.38 780.44,1001.40 775.49,989.14 772.13,991.56 770.11,986.38 763.83,987.89 760.76,983.63 752.50,984.51 744.49,982.37 734.42,968.32 696.71,942.50 627.45,927.58 578.69,873.43 557.21,813.49 520.84,804.45 494.15,779.54"/>
    </edge>
    <edge id="-127187424#0" from="1408363389" to="1408363424" priority="1" type="highway.path" shape="780.14,1470.45 786.21,1476.71 785.92,1485.84 782.39,1490.60 788.06,1498.52 796.71,1499.63 790.50,1511.30 791.72,1514.42 790.28,1521.46 790.83,1528.07 794.70,1531.80 794.14,1536.22 797.94,1543.19 803.96,1547.11 804.54,1555.66 802.66,1563.73 805.00,1569.76 800.87,1583.14 792.19,1586.56">
        <lane id="-127187424#0_0" index="0" allow="pedestrian bicycle" speed="5.56" length="137.37" width="2.00" shape="786.72,1475.80 787.22,1476.32 786.91,1486.18 783.63,1490.61 788.62,1497.58 798.27,1498.83 791.60,1511.36 792.76,1514.33 791.29,1521.52 791.80,1527.61 795.75,1531.43 795.17,1536.03 798.70,1542.49 804.93,1546.54 805.55,1555.74 803.70,1563.66 806.06,1569.72 801.68,1583.89 793.77,1587.02"/>
    </edge>
    <edge id="-127187424#1" from="1408514310" to="1408363389" priority="1" type="highway.path" shape="893.39,1192.45 894.89,1194.14 897.48,1194.35 897.85,1204.88 901.93,1205.98 920.77,1220.74 918.64,1227.97 929.56,1238.08 934.46,1239.37 943.02,1247.60 943.79,1251.28 952.08,1256.34 951.20,1259.02 953.52,1262.73 953.47,1267.04 956.12,1268.90 956.01,1272.18 950.84,1273.33 941.88,1276.99 938.37,1282.89 943.34,1285.17 944.82,1287.82 954.33,1291.84 964.04,1294.48 965.73,1297.42 961.35,1300.51 959.44,1307.34 950.67,1317.07 945.77,1318.73 945.39,1321.34 948.66,1323.86 947.12,1327.22 947.88,1330.59 946.10,1333.77 955.69,1342.88 945.34,1348.98 942.56,1349.02 931.66,1352.87 926.29,1362.38 928.80,1365.52 926.54,1369.19 928.54,1372.51 927.87,1379.50 925.55,1382.89 923.40,1383.53 923.07,1389.03 915.34,1394.85 916.22,1397.59 913.42,1401.50 914.59,1403.42 911.13,1407.12 906.70,1401.45 899.21,1399.99 892.86,1399.51 878.49,1393.80 864.69,1384.63 857.04,1387.46 850.70,1385.68 843.51,1385.09 829.70,1386.65 816.20,1386.16 808.36,1388.14 794.61,1394.29 784.49,1402.95 776.40,1410.90 771.63,1424.42 772.31,1435.82 773.94,1442.77 774.74,1451.29 778.74,1455.82 776.41,1460.29 780.14,1470.45">
        <lane id="-127187424#1_0" index="0" allow="pedestrian bicycle" speed="5.56" length="532.43" width="2.00" shape="897.05,1193.31 898.45,1193.43 898.83,1204.11 902.39,1205.07 921.92,1220.37 919.78,1227.66 930.06,1237.18 934.97,1238.46 943.93,1247.10 944.68,1250.65 953.28,1255.90 952.30,1258.89 954.52,1262.44 954.48,1266.52 957.14,1268.40 956.99,1272.99 951.13,1274.29 942.57,1277.79 939.80,1282.44 944.05,1284.40 945.52,1287.03 954.66,1290.90 964.70,1293.62 967.05,1297.71 962.22,1301.13 960.34,1307.84 951.24,1317.93 946.67,1319.48 946.46,1320.91 949.90,1323.56 948.17,1327.33 948.94,1330.74 947.35,1333.58 957.34,1343.07 945.62,1349.98 942.74,1350.02 932.35,1353.68 927.49,1362.28 930.03,1365.45 927.71,1369.19 929.57,1372.28 928.84,1379.86 926.18,1383.75 924.35,1384.29 924.04,1389.55 916.51,1395.22 917.32,1397.77 914.62,1401.55 915.84,1403.55 911.07,1408.66 906.14,1402.36 899.07,1400.98 892.63,1400.50 878.02,1394.69 864.56,1385.74 857.09,1388.51 850.52,1386.67 843.53,1386.10 829.73,1387.65 816.30,1387.17 808.69,1389.09 795.15,1395.15 785.16,1403.69 777.26,1411.45 772.64,1424.56 773.30,1435.67 774.93,1442.61 775.71,1450.87 779.95,1455.67 777.50,1460.36 780.19,1467.70"/>
    </edge>
    <edge id="-127187424#2" from="1408363077" to="1408514310" priority="1" type="highway.path" shape="878.67,1116.36 880.01,1122.78 876.94,1124.77 882.40,1129.28 883.58,1135.54 887.41,1140.04 886.27,1144.53 889.73,1158.16 885.87,1161.89 889.03,1167.98 891.22,1168.61 894.13,1176.05 897.87,1177.60 896.05,1181.63 896.98,1185.50 896.61,1189.30 893.39,1192.45">
        <lane id="-127187424#2_0" index="0" allow="pedestrian bicycle" speed="5.56" length="84.41" width="2.00" shape="880.48,1120.13 881.13,1123.25 878.63,1124.87 883.32,1128.74 884.51,1135.10 888.50,1139.78 887.30,1144.53 890.84,1158.48 887.10,1162.09 889.72,1167.13 891.97,1167.79 894.90,1175.29 899.20,1177.07 897.10,1181.72 897.99,1185.43 897.56,1189.76 896.81,1190.50"/>
    </edge>
    <edge id="-127187427" from="1408362727" to="1408363077" priority="1" type="highway.path" shape="354.51,15.96 298.60,0.25 279.59,1.22 254.19,12.95 237.36,5.86 221.31,0.00 205.46,3.36 206.47,10.89 207.06,21.91 219.65,38.08 265.34,86.68 294.73,111.88 300.56,122.44 314.85,150.39 332.34,170.41 357.03,183.58 384.80,193.06 401.14,205.83 424.85,222.64 440.55,227.10 451.13,237.86 468.69,262.57 485.08,278.96 494.18,294.95 501.13,307.84 519.84,340.33 536.45,371.79 559.92,408.89 574.24,425.84 572.77,433.14 586.88,472.44 591.02,506.69 597.58,528.93 590.75,561.78 589.93,576.61 590.75,589.80 585.38,602.44 590.81,608.96 586.37,627.33 585.81,639.09 599.73,656.32 603.14,664.49 611.37,689.13 616.92,703.96 628.20,716.15 644.52,723.16 673.28,732.97 690.36,747.85 697.79,759.23 698.12,767.74 712.06,771.81 733.82,785.56 751.54,800.42 761.87,806.23 761.08,810.08 765.26,818.95 772.85,827.15 776.25,840.94 776.57,863.72 779.77,879.63 779.14,894.76 785.27,905.32 794.49,923.70 802.31,933.17 812.88,940.27 816.63,949.36 826.43,962.43 839.53,982.46 843.04,989.43 850.29,1000.92 860.56,1011.82 865.47,1021.28 872.26,1027.87 874.44,1036.69 873.61,1045.96 873.60,1054.69 875.04,1060.25 875.42,1069.33 875.25,1076.94 875.78,1079.86 878.44,1090.08 880.43,1097.09 881.09,1104.55 880.25,1112.03 878.67,1116.36">
        <lane id="-127187427_0" index="0" allow="pedestrian bicycle" speed="5.56" length="1557.95" width="2.00" shape="354.23,16.93 298.49,1.26 279.83,2.21 254.21,14.04 236.99,6.79 221.23,1.04 206.57,4.14 207.47,10.80 208.05,21.54 220.41,37.43 266.04,85.95 295.52,111.24 301.44,121.97 315.68,149.83 332.97,169.62 357.43,182.66 385.28,192.16 401.74,205.03 425.29,221.73 441.08,226.21 451.90,237.22 469.45,261.92 485.89,278.35 495.05,294.46 502.01,307.35 520.72,339.85 537.32,371.29 560.73,408.30 575.31,425.56 573.81,433.06 587.86,472.21 592.00,506.49 598.61,528.89 591.75,561.91 590.93,576.61 591.76,589.97 586.54,602.26 591.90,608.71 587.36,627.47 586.83,638.76 600.60,655.81 604.08,664.14 612.32,688.80 617.79,703.43 628.79,715.31 644.88,722.23 673.79,732.09 691.12,747.18 698.78,758.92 699.09,766.98 712.47,770.89 734.41,784.75 752.11,799.59 763.00,805.72 762.12,809.95 766.10,818.39 773.75,826.66 777.24,840.81 777.57,863.61 780.78,879.55 780.15,894.51 786.15,904.84 795.34,923.15 802.99,932.42 813.68,939.61 817.51,948.86 827.25,961.85 840.40,981.96 843.91,988.94 851.08,1000.31 861.38,1011.23 866.28,1020.68 873.16,1027.35 875.45,1036.62 874.61,1046.01 874.60,1054.56 876.03,1060.10 876.42,1069.32 876.25,1076.86 876.76,1079.65 879.41,1089.82 881.42,1096.91 882.10,1104.56 881.24,1112.26 880.40,1114.54"/>
    </edge>
    <edge id="-127204428" from="1408514317" to="4340038006" priority="1" type="highway.path" shape="871.74,1202.63 858.13,1208.54 853.46,1208.86 848.67,1212.31 842.70,1212.70 836.44,1214.14 830.23,1214.11 823.82,1211.74 808.43,1207.44 789.76,1203.60 766.84,1197.47 743.62,1185.38 714.70,1184.57 684.06,1178.23 671.26,1175.23 648.98,1163.24 615.32,1154.17 583.31,1138.84 562.65,1139.74 536.72,1132.32 505.43,1124.03 498.54,1123.73 474.88,1116.16 461.54,1111.74 451.63,1109.62 440.56,1104.86 431.06,1102.74">
        <lane id="-127204428_0" index="0" allow="pedestrian bicycle" speed="5.56" length="463.05" width="2.00" shape="872.01,1203.60 858.37,1209.53 853.81,1209.84 849.02,1213.29 842.85,1213.70 836.55,1215.14 830.05,1215.11 823.51,1212.69 808.19,1208.41 789.53,1204.58 766.47,1198.41 743.37,1186.37 714.59,1185.56 683.85,1179.21 670.91,1176.17 648.61,1164.18 614.97,1155.11 583.11,1139.85 562.53,1140.75 536.46,1133.28 505.28,1125.03 498.36,1124.73 474.57,1117.12 461.28,1112.71 451.33,1110.58 440.25,1105.81 430.84,1103.71"/>
    </edge>
    <edge id="-1445077348" from="10728506771" to="1408363389" priority="1" type="highway.path" shape="1078.59,1758.40 1053.83,1744.25 1056.11,1714.15 1018.47,1651.94 963.41,1584.05 927.45,1538.00 817.99,1479.78 780.14,1470.45">
        <lane id="-1445077348_0" index="0" allow="pedestrian bicycle" speed="5.56" length="431.57" width="2.00" shape="1078.09,1759.27 1052.78,1744.80 1055.09,1714.40 1017.65,1652.52 962.62,1584.68 926.79,1538.79 817.63,1480.73 788.12,1473.45"/>
    </edge>
    <edge id="-436120824" from="1408514317" to="1408514310" priority="1" type="highway.path" shape="871.74,1202.63 876.39,1201.36 887.15,1194.29 893.39,1192.45">
        <lane id="-436120824_0" index="0" allow="pedestrian bicycle" speed="5.56" length="21.27" width="2.00" shape="871.62,1201.62 875.98,1200.44 886.72,1193.37 890.45,1192.27"/>
    </edge>
    <edge id="-436120832" from="4340038481" to="1408363424" priority="1" type="highway.path" shape="0.00,1615.53 18.66,1618.97 26.67,1625.00 35.89,1628.87 51.42,1629.26 56.74,1631.14 62.64,1630.28 73.25,1630.91 107.71,1616.37 114.23,1611.87 125.96,1612.11 139.08,1608.85 152.85,1608.30 163.89,1606.44 169.14,1603.30 184.72,1606.56 203.22,1594.50 212.08,1591.72 228.16,1587.59 247.98,1592.43 272.00,1602.96 295.79,1619.85 311.66,1621.98 323.50,1630.02 338.84,1630.62 376.94,1640.85 384.50,1637.26 393.67,1637.95 398.96,1634.29 410.27,1634.23 420.90,1629.43 440.18,1625.27 446.48,1619.64 451.72,1618.95 454.95,1614.90 466.82,1610.43 478.04,1596.84 483.46,1593.89 488.58,1585.42 502.35,1576.91 510.60,1563.67 514.36,1553.16 514.02,1536.97 518.80,1532.18 519.82,1509.92 516.16,1491.41 514.24,1457.19 518.25,1446.47 519.95,1438.70 524.79,1436.12 528.50,1432.74 530.39,1428.15 535.99,1427.46 551.16,1420.88 556.56,1420.60 565.36,1416.58 569.15,1412.22 577.38,1412.26 585.28,1410.97 594.66,1412.01 602.01,1415.60 610.35,1416.20 632.44,1428.50 644.02,1433.06 653.25,1441.89 656.44,1441.90 658.92,1443.20 661.85,1442.95 672.18,1445.78 687.72,1457.46 689.18,1462.15 693.12,1464.92 696.99,1472.45 701.06,1476.44 704.69,1485.78 708.50,1490.08 714.30,1507.84 722.19,1512.81 727.28,1523.65 735.67,1531.00 743.45,1535.88 759.77,1551.75 766.22,1560.58 770.12,1563.49 777.77,1573.83 782.47,1577.04 792.19,1586.56">
        <lane id="-436120832_0" index="0" allow="pedestrian bicycle" speed="5.56" length="1056.39" width="2.00" shape="0.18,1614.55 19.08,1618.03 27.17,1624.13 36.10,1627.88 51.61,1628.27 56.84,1630.12 62.60,1629.28 73.08,1629.90 107.22,1615.49 113.93,1610.86 125.85,1611.11 138.94,1607.85 152.75,1607.30 163.53,1605.49 168.96,1602.24 184.52,1605.49 202.79,1593.59 211.80,1590.76 228.16,1586.56 248.30,1591.48 272.50,1602.09 296.17,1618.89 312.03,1621.02 323.83,1629.03 338.99,1629.63 376.84,1639.79 384.31,1636.24 393.39,1636.93 398.64,1633.29 410.05,1633.23 420.59,1628.48 439.71,1624.35 446.05,1618.69 451.19,1618.01 454.34,1614.06 466.22,1609.59 477.40,1596.05 482.74,1593.14 487.85,1584.70 501.62,1576.18 509.69,1563.23 513.36,1552.99 513.01,1536.57 517.81,1531.75 518.81,1509.99 515.17,1491.53 513.23,1457.04 517.29,1446.18 519.07,1438.03 524.21,1435.29 527.66,1432.15 529.69,1427.22 535.72,1426.48 550.93,1419.90 556.32,1419.61 564.74,1415.76 568.70,1411.22 577.30,1411.26 585.25,1409.96 594.94,1411.04 602.28,1414.62 610.64,1415.22 632.87,1427.59 644.57,1432.20 653.66,1440.90 656.68,1440.91 659.13,1442.18 661.94,1441.94 672.63,1444.87 688.58,1456.85 690.03,1461.53 693.90,1464.24 697.80,1471.85 701.91,1475.88 705.55,1485.25 709.38,1489.58 715.14,1507.19 722.97,1512.12 728.10,1523.03 736.26,1530.19 744.07,1535.09 760.53,1551.10 766.94,1559.86 770.84,1562.78 778.48,1573.10 783.11,1576.26 791.97,1584.94"/>
    </edge>
    <edge id="127187416" from="442647048" to="442647150" priority="1" type="highway.path" shape="1132.95,550.77 1137.13,558.04 1140.28,565.49 1143.39,567.30 1145.15,571.37 1148.09,575.35 1149.14,580.71 1147.66,585.75 1146.92,594.89 1153.44,612.74 1150.94,637.12 1167.76,668.53 1168.92,678.80 1166.70,693.42 1179.25,713.35 1202.64,745.98 1203.98,757.60 1207.29,759.20 1207.47,768.54 1212.00,771.95 1215.71,776.31 1216.67,767.53 1223.04,774.42 1223.97,778.71 1229.34,783.35 1232.63,794.63 1245.10,806.82 1252.28,820.35 1263.89,849.91 1275.71,871.44 1282.65,902.28 1289.66,903.92 1295.73,910.91 1299.86,933.93 1315.19,948.79 1320.72,961.73 1323.52,981.49 1332.94,989.60 1348.15,976.76 1347.22,994.99 1365.11,1006.08 1370.93,1010.05 1372.65,1015.87 1382.98,1025.98 1385.02,1032.20 1397.10,1043.12 1406.25,1064.52 1406.32,1073.44 1403.25,1081.48 1398.14,1087.70 1393.43,1100.08 1397.75,1107.30 1396.50,1109.98 1391.13,1119.60 1391.62,1125.43 1393.83,1128.68 1399.71,1129.62 1408.82,1148.98 1408.48,1154.22 1413.93,1161.32 1416.60,1156.87 1419.82,1163.34 1425.37,1170.23 1425.93,1166.48 1445.89,1183.54 1458.44,1175.86 1472.20,1213.20 1480.26,1253.96 1502.04,1288.70 1514.73,1290.19 1538.64,1311.54 1546.14,1313.10 1551.05,1334.73 1559.72,1337.11 1565.95,1330.35 1575.13,1369.42 1571.37,1388.67 1564.65,1402.10 1572.29,1412.84 1571.25,1421.20 1579.09,1430.27 1597.58,1451.69 1594.95,1469.25 1604.82,1516.65 1605.18,1542.51 1614.15,1566.58 1602.14,1571.75 1604.15,1592.58 1616.46,1608.26 1626.47,1623.97 1625.66,1648.99 1621.31,1667.42 1611.02,1672.56 1612.52,1697.57 1620.43,1686.61 1632.72,1701.45 1641.50,1711.34 1640.68,1735.54 1654.22,1756.21 1649.81,1770.45 1656.84,1779.53 1644.49,1802.22 1643.05,1823.09 1650.23,1842.19 1653.36,1860.49 1663.23,1866.19 1668.43,1867.78 1671.47,1879.42 1677.79,1878.50 1682.77,1905.13 1681.43,1932.68 1666.63,1945.40">