<?xml version="1.0" encoding="UTF-8"?>

<!-- generated on 2025-11-14 17:26:42 by Eclipse SUMO netconvert Version 1.24.0
<netconvertConfiguration xmlns:xsi="http://www.w3.org/2001/XMLSchema-instance" xsi:noNamespaceSchemaLocation="http://sumo.dlr.de/xsd/netconvertConfiguration.xsd">

    <input>
        <osm-files value="map.osm"/>
    </input>

    <output>
        <output-file value="tokyo_intersection.net.xml"/>
    </output>

    <projection>
        <proj.utm value="true"/>
    </projection>

    <processing>
        <geometry.remove value="true"/>
    </processing>

    <junctions>
        <junctions.corner-detail value="5"/>
    </junctions>

</netconvertConfiguration>
-->

<net version="1.20" junctionCornerDetail="5" limitTurnSpeed="5.50" xmlns:xsi="http://www.w3.org/2001/XMLSchema-instance" xsi:noNamespaceSchemaLocation="http://sumo.dlr.de/xsd/net_file.xsd">

    <location netOffset="-375903.97,-3942398.17" convBoundary="0.00,0.00,8097.36,12350.19" origBoundary="139.629735,35.617581,139.717433,35.729842" projParameter="+proj=utm +zone=54 +ellps=WGS84 +datum=WGS84 +units=m +no_defs"/>

    <type id="highway.footway" priority="1" numLanes="1" speed="2.78" allow="pedestrian" oneway="1" width="2.00"/>
    <type id="highway.motorway" priority="14" numLanes="2" speed="39.44" allow="private emergency authority army vip passenger hov taxi bus coach delivery truck trailer motorcycle evehicle custom1 custom2" oneway="1"/>
    <type id="highway.motorway_link" priority="9" numLanes="1" speed="22.22" allow="private emergency authority army vip passenger hov taxi bus coach delivery truck trailer motorcycle evehicle custom1 custom2" oneway="1"/>
    <type id="highway.path" priority="1" numLanes="1" speed="5.56" allow="pedestrian bicycle" oneway="0" width="2.00"/>
    <type id="highway.pedestrian" priority="1" numLanes="1" speed="2.78" allow="pedestrian" oneway="1" width="2.00"/>
    <type id="highway.primary" priority="12" numLanes="2" speed="27.78" disallow="tram rail_urban rail rail_electric rail_fast ship container cable_car subway aircraft wheelchair scooter drone" oneway="0"/>
    <type id="highway.residential" priority="3" numLanes="1" speed="13.89" disallow="tram rail_urban rail rail_electric rail_fast ship container cable_car subway aircraft wheelchair scooter drone" oneway="0"/>
    <type id="highway.secondary" priority="11" numLanes="1" speed="27.78" disallow="tram rail_urban rail rail_electric rail_fast ship container cable_car subway aircraft wheelchair scooter drone" oneway="0"/>
    <type id="highway.service" priority="1" numLanes="1" speed="5.56" allow="pedestrian delivery bicycle" oneway="0"/>
    <type id="highway.service|psv" priority="1" numLanes="1" speed="13.89" allow="pedestrian bus delivery bicycle" oneway="0"/>
    <type id="highway.steps" priority="1" numLanes="1" speed="1.39" allow="pedestrian" oneway="1" width="2.00"/>
    <type id="highway.tertiary" priority="10" numLanes="1" speed="22.22" disallow="tram rail_urban rail rail_electric rail_fast ship container cable_car subway aircraft wheelchair scooter drone" oneway="0"/>
    <type id="highway.tertiary_link" priority="5" numLanes="1" speed="22.22" disallow="tram rail_urban rail rail_electric rail_fast ship container cable_car subway aircraft wheelchair scooter drone" oneway="0"/>
    <type id="highway.trunk" priority="13" numLanes="2" speed="27.78" disallow="pedestrian bicycle tram rail_urban rail rail_electric rail_fast ship container cable_car subway aircraft wheelchair scooter drone" oneway="0"/>
    <type id="highway.trunk_link" priority="8" numLanes="1" speed="22.22" disallow="pedestrian bicycle tram rail_urban rail rail_electric rail_fast ship container cable_car subway aircraft wheelchair scooter drone" oneway="0"/>
    <type id="highway.unclassified" priority="4" numLanes="1" speed="13.89" disallow="tram rail_urban rail rail_electric rail_fast ship container cable_car subway aircraft wheelchair scooter drone" oneway="0"/>
    <type id="railway.rail" priority="20" numLanes="1" speed="44.44" allow="rail" oneway="1"/>
    <type id="railway.subway" priority="18" numLanes="1" speed="27.78" allow="subway" oneway="1"/>

    <edge id=":10074741557_0" function="internal">
        <lane id=":10074741557_0_0" index="0" allow="subway" speed="9.72" length="2.94" shape="6282.49,4390.57 6285.17,4391.78"/>
    </edge>
    <edge id=":10074741557_1" function="internal">
        <lane id=":10074741557_1_0" index="0" allow="subway" speed="18.75" length="2.94" shape="6282.49,4390.57 6283.29,4390.93 6283.82,4391.19 6284.35,4391.47 6285.11,4391.90"/>
    </edge>
    <edge id=":10074741562_0" function="internal">
        <lane id=":10074741562_0_0" index="0" allow="subway" speed="9.72" length="2.77" shape="6305.15,4409.96 6304.41,4409.60 6303.89,4409.37 6303.37,4409.18 6302.59,4408.92"/>
    </edge>
    <edge id=":10074741562_1" function="internal">
        <lane id=":10074741562_1_0" index="0" allow="subway" speed="9.72" length="2.78" shape="6305.15,4409.96 6302.65,4408.73"/>
    </edge>
    <edge id=":10074741568_0" function="internal">
        <lane id=":10074741568_0_0" index="0" allow="subway" speed="9.72" length="2.99" shape="6386.14,4450.74 6388.97,4451.69"/>
    </edge>
    <edge id=":10074741568_1" function="internal">
        <lane id=":10074741568_1_0" index="0" allow="subway" speed="9.72" length="2.99" shape="6386.14,4450.74 6388.95,4451.75"/>
    </edge>
    <edge id=":10074741583_0" function="internal">
        <lane id=":10074741583_0_0" index="0" allow="subway" speed="9.72" length="3.01" shape="6424.07,4462.73 6427.04,4463.21"/>
    </edge>
    <edge id=":10074741583_1" function="internal">
        <lane id=":10074741583_1_0" index="0" allow="subway" speed="9.72" length="3.00" shape="6424.06,4462.84 6427.04,4463.21"/>
    </edge>
    <edge id=":10074741587_0" function="internal">
        <lane id=":10074741587_0_0" index="0" allow="subway" speed="9.72" length="24.93" shape="6339.78,4430.81 6344.41,4433.41 6350.72,4436.81 6357.10,4440.05 6361.94,4442.18"/>
    </edge>
    <edge id=":10074741587_1" function="internal">
        <lane id=":10074741587_1_0" index="0" allow="subway" speed="9.72" length="24.87" shape="6338.48,4433.94 6361.94,4442.18"/>
    </edge>
    <edge id=":10074741612_0" function="internal">
        <lane id=":10074741612_0_0" index="0" allow="subway" speed="9.72" length="28.89" shape="6221.30,4399.11 6226.93,4400.99 6235.05,4403.61 6243.21,4406.07 6248.95,4407.46"/>
    </edge>
    <edge id=":10074741612_1" function="internal">
        <lane id=":10074741612_1_0" index="0" allow="subway" speed="9.72" length="28.77" shape="6220.64,4402.39 6226.42,4403.57 6234.76,4405.09 6243.13,4406.52 6248.95,4407.46"/>
    </edge>
    <edge id=":10074741615_0" function="internal">
        <lane id=":10074741615_0_0" index="0" allow="subway" speed="9.72" length="2.78" shape="6262.64,4409.34 6265.27,4410.24"/>
    </edge>
    <edge id=":10074741615_1" function="internal">
        <lane id=":10074741615_1_0" index="0" allow="subway" speed="9.72" length="2.77" shape="6262.59,4409.55 6263.40,4409.71 6263.95,4409.83 6264.49,4409.98 6265.27,4410.24"/>
    </edge>
    <edge id=":10074749324_0" function="internal">
        <lane id=":10074749324_0_0" index="0" allow="subway" speed="9.72" length="2.99" shape="6213.49,4387.55 6216.28,4388.63"/>
    </edge>
    <edge id=":10074749324_1" function="internal">
        <lane id=":10074749324_1_0" index="0" allow="subway" speed="9.72" length="2.58" shape="6213.49,4387.55 6214.20,4387.83 6214.68,4388.04 6215.15,4388.27 6215.83,4388.63"/>
    </edge>
    <edge id=":10074749325_0" function="internal">
        <lane id=":10074749325_0_0" index="0" allow="subway" speed="9.72" length="2.64" shape="6237.35,4400.19 6238.05,4400.56 6238.53,4400.80 6239.02,4401.00 6239.76,4401.27"/>
    </edge>
    <edge id=":10074749325_1" function="internal">
        <lane id=":10074749325_1_0" index="0" allow="subway" speed="9.72" length="3.00" shape="6236.93,4400.26 6239.76,4401.27"/>
    </edge>
    <edge id=":10074749326_0" function="internal">
        <lane id=":10074749326_0_0" index="0" allow="subway" speed="9.72" length="2.64" shape="6211.87,4391.21 6212.60,4391.47 6213.12,4391.63 6213.64,4391.75 6214.40,4391.91"/>
    </edge>
    <edge id=":10074749326_1" function="internal">
        <lane id=":10074749326_1_0" index="0" allow="subway" speed="9.72" length="2.77" shape="6211.87,4391.21 6214.47,4392.15"/>
    </edge>
    <edge id=":10074749327_0" function="internal">
        <lane id=":10074749327_0_0" index="0" allow="subway" speed="9.72" length="2.81" shape="6238.90,4396.67 6241.56,4397.56"/>
    </edge>
    <edge id=":10074749327_1" function="internal">
        <lane id=":10074749327_1_0" index="0" allow="subway" speed="9.72" length="2.79" shape="6238.86,4396.85 6239.68,4397.02 6240.23,4397.15 6240.78,4397.31 6241.56,4397.56"/>
    </edge>
    <edge id=":10074749331_0" function="internal">
        <lane id=":10074749331_0_0" index="0" allow="subway" speed="9.72" length="2.83" shape="6324.96,4420.63 6327.19,4422.37"/>
    </edge>
    <edge id=":10074749333_0" function="internal">
        <lane id=":10074749333_0_0" index="0" allow="subway" speed="9.72" length="24.01" shape="6216.00,4388.72 6220.70,4390.84 6227.10,4393.28 6233.60,4395.45 6238.58,4396.80"/>
    </edge>
    <edge id=":10074749333_1" function="internal">
        <lane id=":10074749333_1_0" index="0" allow="subway" speed="9.72" length="23.86" shape="6216.00,4388.72 6237.02,4400.01"/>
    </edge>
    <edge id=":10074749333_2" function="internal">
        <lane id=":10074749333_2_0" index="0" allow="subway" speed="9.72" length="24.54" shape="6214.52,4391.93 6238.58,4396.80"/>
    </edge>
    <edge id=":10074749333_3" function="internal">
        <lane id=":10074749333_3_0" index="0" allow="subway" speed="9.72" length="23.94" shape="6214.52,4391.93 6219.48,4393.28 6225.96,4395.46 6232.34,4397.89 6237.02,4400.01"/>
    </edge>
    <edge id=":10074791872_0" function="internal">
        <lane id=":10074791872_0_0" index="0" allow="subway" speed="18.75" length="0.30" shape="6307.73,4407.38 6307.97,4407.56"/>
    </edge>
    <edge id=":10074791874_0" function="internal">
        <lane id=":10074791874_0_0" index="0" allow="subway" speed="18.75" length="0.30" shape="6316.25,4413.97 6316.48,4414.15"/>
    </edge>
    <edge id=":1014528882_0" function="internal">
        <lane id=":1014528882_0_0" index="0" disallow="tram rail_urban rail rail_electric rail_fast ship container cable_car subway aircraft wheelchair scooter drone" speed="18.91" length="7.97" shape="6481.00,4436.24 6481.76,4434.15 6481.57,4432.54 6481.12,4430.84 6481.08,4428.48"/>
    </edge>
    <edge id=":1014528900_0" function="internal">
        <lane id=":1014528900_0_0" index="0" disallow="tram rail_urban rail rail_electric rail_fast ship container cable_car subway aircraft wheelchair scooter drone" speed="4.97" length="7.18" shape="6043.45,4396.14 6041.91,4394.06 6040.57,4393.18 6039.42,4393.50 6038.47,4395.02"/>
    </edge>
    <edge id=":1014528900_1" function="internal">
        <lane id=":1014528900_1_0" index="0" disallow="tram rail_urban rail rail_electric rail_fast ship container cable_car subway aircraft wheelchair scooter drone" speed="10.77" length="14.38" shape="6043.45,4396.14 6041.27,4392.03 6040.03,4388.40 6039.71,4385.26 6040.34,4382.59"/>
    </edge>
    <edge id=":1014528900_2" function="internal">
        <lane id=":1014528900_2_0" index="0" disallow="tram rail_urban rail rail_electric rail_fast ship container cable_car subway aircraft wheelchair scooter drone" speed="3.83" length="5.37" shape="6043.45,4396.14 6042.69,4394.66 6042.74,4393.63 6043.59,4393.05 6045.24,4392.92"/>
    </edge>
    <edge id=":1014528900_3" function="internal">
        <lane id=":1014528900_3_0" index="0" disallow="tram rail_urban rail rail_electric rail_fast ship container cable_car subway aircraft wheelchair scooter drone" speed="8.87" length="9.56" shape="6043.26,4383.91 6042.82,4385.71 6043.01,4387.82 6043.81,4390.22 6045.24,4392.92"/>
    </edge>
    <edge id=":1014528900_4" function="internal">
        <lane id=":1014528900_4_0" index="0" disallow="tram rail_urban rail rail_electric rail_fast ship container cable_car subway aircraft wheelchair scooter drone" speed="22.22" length="12.10" shape="6043.26,4383.91 6038.47,4395.02"/>
    </edge>
    <edge id=":1014528900_5" function="internal">
        <lane id=":1014528900_5_0" index="0" disallow="tram rail_urban rail rail_electric rail_fast ship container cable_car subway aircraft wheelchair scooter drone" speed="3.65" length="1.44" shape="6043.26,4383.91 6042.03,4384.67"/>
    </edge>
    <edge id=":1014528900_9" function="internal">
        <lane id=":1014528900_9_0" index="0" disallow="tram rail_urban rail rail_electric rail_fast ship container cable_car subway aircraft wheelchair scooter drone" speed="3.65" length="3.23" shape="6042.03,4384.67 6041.14,4384.71 6040.58,4384.02 6040.34,4382.59"/>
    </edge>
    <edge id=":1014528900_6" function="internal">
        <lane id=":1014528900_6_0" index="0" disallow="tram rail_urban rail rail_electric rail_fast ship container cable_car subway aircraft wheelchair scooter drone" speed="22.22" length="12.23" shape="6035.50,4393.82 6040.34,4382.59"/>
    </edge>
    <edge id=":1014528900_7" function="internal">
        <lane id=":1014528900_7_0" index="0" disallow="tram rail_urban rail rail_electric rail_fast ship container cable_car subway aircraft wheelchair scooter drone" speed="6.68" length="4.68" shape="6035.50,4393.82 6037.65,4389.96 6037.87,4389.82"/>
    </edge>
    <edge id=":1014528900_8" function="internal">
        <lane id=":1014528900_8_0" index="0" disallow="tram rail_urban rail rail_electric rail_fast ship container cable_car subway aircraft wheelchair scooter drone" speed="3.65" length="1.44" shape="6035.50,4393.82 6036.69,4393.01"/>
    </edge>
    <edge id=":1014528900_10" function="internal">
        <lane id=":1014528900_10_0" index="0" disallow="tram rail_urban rail rail_electric rail_fast ship container cable_car subway aircraft wheelchair scooter drone" speed="6.68" length="9.57" shape="6037.87,4389.82 6039.99,4388.52 6042.52,4389.51 6045.24,4392.92"/>
    </edge>
    <edge id=":1014528900_11" function="internal">
        <lane id=":1014528900_11_0" index="0" disallow="tram rail_urban rail rail_electric rail_fast ship container cable_car subway aircraft wheelchair scooter drone" speed="3.65" length="3.23" shape="6036.69,4393.01 6037.58,4392.94 6038.18,4393.61 6038.47,4395.02"/>
    </edge>
    <edge id=":1014529018_0" function="internal">
        <lane id=":1014529018_0_0" index="0" allow="pedestrian delivery bicycle" speed="6.11" length="7.04" shape="6083.54,4463.52 6081.68,4463.87 6080.09,4463.58 6078.76,4462.65 6077.70,4461.08"/>
    </edge>
    <edge id=":1014529018_1" function="internal">
        <lane id=":1014529018_1_0" index="0" allow="pedestrian delivery bicycle" speed="3.92" length="2.35" shape="6080.57,4459.68 6080.93,4460.20 6081.37,4460.51 6081.90,4460.61 6082.52,4460.49"/>
    </edge>
    <edge id=":1014529018_2" function="internal">
        <lane id=":1014529018_2_0" index="0" disallow="tram rail_urban rail rail_electric rail_fast ship container cable_car subway aircraft wheelchair scooter drone" speed="3.65" length="4.67" shape="6080.57,4459.68 6080.38,4461.10 6079.84,4461.81 6078.94,4461.81 6077.70,4461.08"/>
    </edge>
    <edge id=":1014529046_0" function="internal">
        <lane id=":1014529046_0_0" index="0" disallow="tram rail_urban rail rail_electric rail_fast ship container cable_car subway aircraft wheelchair scooter drone" speed="6.49" length="9.03" shape="6017.34,4852.11 6019.57,4853.20 6021.60,4853.30 6023.45,4852.43 6025.10,4850.59"/>
    </edge>
    <edge id=":1014529046_1" function="internal">
        <lane id=":1014529046_1_0" index="0" disallow="tram rail_urban rail rail_electric rail_fast ship container cable_car subway aircraft wheelchair scooter drone" speed="3.65" length="4.67" shape="6017.34,4852.11 6017.89,4853.45 6017.77,4854.33 6016.99,4854.77 6015.55,4854.76"/>
    </edge>
    <edge id=":1014529046_2" function="internal">
        <lane id=":1014529046_2_0" index="0" disallow="tram rail_urban rail rail_electric rail_fast ship container cable_car subway aircraft wheelchair scooter drone" speed="6.50" length="9.04" shape="6017.04,4862.54 6018.13,4860.32 6018.24,4858.28 6017.38,4856.43 6015.55,4854.76"/>
    </edge>
    <edge id=":1014529046_3" function="internal">
        <lane id=":1014529046_3_0" index="0" disallow="tram rail_urban rail rail_electric rail_fast ship container cable_car subway aircraft wheelchair scooter drone" speed="8.33" length="14.42" shape="6017.04,4862.54 6025.10,4850.59"/>
    </edge>
    <edge id=":1014529105_0" function="internal">
        <lane id=":1014529105_0_0" index="0" disallow="tram rail_urban rail rail_electric rail_fast ship container cable_car subway aircraft wheelchair scooter drone" speed="7.63" length="8.61" shape="6153.71,4524.38 6152.30,4523.32 6150.47,4522.82 6148.24,4522.88 6145.59,4523.50"/>
    </edge>
    <edge id=":1014529105_1" function="internal">
        <lane id=":1014529105_1_0" index="0" allow="pedestrian delivery bicycle" speed="9.72" length="10.86" shape="6153.71,4524.38 6146.28,4516.46"/>
    </edge>
    <edge id=":1014529105_2" function="internal">
        <lane id=":1014529105_2_0" index="0" disallow="tram rail_urban rail rail_electric rail_fast ship container cable_car subway aircraft wheelchair scooter drone" speed="13.89" length="11.41" shape="6153.72,4515.88 6151.81,4518.51 6150.28,4520.59 6148.43,4522.23 6145.59,4523.50"/>
    </edge>
    <edge id=":1014529105_3" function="internal">
        <lane id=":1014529105_3_0" index="0" allow="pedestrian delivery bicycle" speed="6.10" length="5.31" shape="6153.72,4515.88 6151.83,4517.71 6149.95,4518.42 6149.30,4518.27"/>
    </edge>
    <edge id=":1014529105_8" function="internal">
        <lane id=":1014529105_8_0" index="0" allow="pedestrian delivery bicycle" speed="6.10" length="3.61" shape="6149.30,4518.27 6148.11,4518.00 6146.28,4516.46"/>
    </edge>
    <edge id=":1014529105_4" function="internal">
        <lane id=":1014529105_4_0" index="0" allow="pedestrian delivery bicycle" speed="6.52" length="11.89" shape="6149.21,4514.99 6150.86,4517.70 6150.80,4520.02 6149.05,4521.95 6145.59,4523.50"/>
    </edge>
    <edge id=":1014529105_5" function="internal">
        <lane id=":1014529105_5_0" index="0" allow="pedestrian delivery bicycle" speed="3.68" length="4.79" shape="6149.21,4514.99 6149.03,4516.45 6148.48,4517.19 6147.56,4517.19 6146.28,4516.46"/>
    </edge>
    <edge id=":1014529105_6" function="internal">
        <lane id=":1014529105_6_0" index="0" allow="pedestrian delivery bicycle" speed="4.71" length="5.55" shape="6144.63,4520.44 6146.24,4519.72 6147.04,4518.82 6147.06,4517.73 6146.28,4516.46"/>
    </edge>
    <edge id=":1014529105_7" function="internal">
        <lane id=":1014529105_7_0" index="0" disallow="tram rail_urban rail rail_electric rail_fast ship container cable_car subway aircraft wheelchair scooter drone" speed="3.65" length="1.32" shape="6144.63,4520.44 6145.90,4520.81"/>
    </edge>
    <edge id=":1014529105_9" function="internal">
        <lane id=":1014529105_9_0" index="0" disallow="tram rail_urban rail rail_electric rail_fast ship container cable_car subway aircraft wheelchair scooter drone" speed="3.65" length="3.35" shape="6145.90,4520.81 6146.02,4520.85 6146.64,4521.49 6146.50,4522.37 6145.59,4523.50"/>
    </edge>
    <edge id=":1014529124_0" function="internal">
        <lane id=":1014529124_0_0" index="0" disallow="tram rail_urban rail rail_electric rail_fast ship container cable_car subway aircraft wheelchair scooter drone" speed="22.22" length="4.95" shape="6310.55,4708.10 6306.13,4710.31"/>
    </edge>
    <edge id=":1014529169_0" function="internal">
        <lane id=":1014529169_0_0" index="0" allow="delivery bicycle" speed="5.49" length="5.04" shape="6400.53,4577.48 6400.22,4576.13 6399.60,4575.10 6398.67,4574.42 6397.42,4574.06"/>
    </edge>
    <edge id=":1014529169_1" function="internal">
        <lane id=":1014529169_1_0" index="0" allow="delivery bicycle" speed="6.40" length="9.92" shape="6400.53,4577.48 6400.24,4573.30 6400.31,4570.34 6400.76,4568.60 6401.57,4568.07"/>
    </edge>
    <edge id=":1014529169_2" function="internal">
        <lane id=":1014529169_2_0" index="0" disallow="pedestrian tram rail_urban rail rail_electric rail_fast ship container cable_car subway aircraft wheelchair scooter drone" speed="22.22" length="3.57" shape="6401.05,4574.45 6397.42,4574.06"/>
        <lane id=":1014529169_2_1" index="1" disallow="pedestrian tram rail_urban rail rail_electric rail_fast ship container cable_car subway aircraft wheelchair scooter drone" speed="22.22" length="3.57" shape="6401.31,4571.26 6397.84,4570.89"/>
    </edge>
    <edge id=":1014529169_4" function="internal">
        <lane id=":1014529169_4_0" index="0" disallow="pedestrian tram rail_urban rail rail_electric rail_fast ship container cable_car subway aircraft wheelchair scooter drone" speed="22.22" length="3.26" shape="6398.67,4564.55 6401.83,4564.88"/>
        <lane id=":1014529169_4_1" index="1" disallow="pedestrian tram rail_urban rail rail_electric rail_fast ship container cable_car subway aircraft wheelchair scooter drone" speed="22.22" length="3.26" shape="6398.25,4567.72 6401.57,4568.07"/>
    </edge>
    <edge id=":1014529222_0" function="internal">
        <lane id=":1014529222_0_0" index="0" disallow="tram rail_urban rail rail_electric rail_fast ship container cable_car subway aircraft wheelchair scooter drone" speed="3.65" length="4.67" shape="5907.47,4493.06 5906.34,4492.17 5906.00,4491.34 5906.46,4490.58 5907.72,4489.87"/>
    </edge>
    <edge id=":1014529225_0" function="internal">
        <lane id=":1014529225_0_0" index="0" allow="pedestrian delivery bicycle" speed="5.29" length="5.24" shape="6103.23,4460.44 6102.46,4459.15 6101.51,4458.36 6100.38,4458.07 6099.06,4458.29"/>
    </edge>
    <edge id=":1014529225_1" function="internal">
        <lane id=":1014529225_1_0" index="0" allow="pedestrian delivery bicycle" speed="6.83" length="10.38" shape="6103.23,4460.44 6102.47,4457.68 6102.79,4455.38 6104.20,4453.52 6106.69,4452.12"/>
    </edge>
    <edge id=":1014529225_2" function="internal">
        <lane id=":1014529225_2_0" index="0" disallow="tram rail_urban rail rail_electric rail_fast ship container cable_car subway aircraft wheelchair scooter drone" speed="3.65" length="4.67" shape="6103.23,4460.44 6103.48,4459.02 6104.05,4458.33 6104.95,4458.38 6106.16,4459.16"/>
    </edge>
    <edge id=":1014529225_3" function="internal">
        <lane id=":1014529225_3_0" index="0" allow="pedestrian delivery bicycle" speed="4.99" length="5.05" shape="6107.85,4455.11 6106.63,4455.79 6105.95,4456.69 6105.79,4457.81 6106.16,4459.16"/>
    </edge>
    <edge id=":1014529225_4" function="internal">
        <lane id=":1014529225_4_0" index="0" allow="pedestrian delivery bicycle" speed="5.56" length="9.34" shape="6107.85,4455.11 6099.06,4458.29"/>
    </edge>
    <edge id=":1014529225_5" function="internal">
        <lane id=":1014529225_5_0" index="0" allow="pedestrian delivery bicycle" speed="3.65" length="4.67" shape="6107.85,4455.11 6106.44,4454.79 6105.78,4454.19 6105.86,4453.30 6106.69,4452.12"/>
    </edge>
    <edge id=":1014529225_6" function="internal">
        <lane id=":1014529225_6_0" index="0" allow="pedestrian delivery bicycle" speed="5.56" length="9.20" shape="6098.04,4455.26 6106.69,4452.12"/>
    </edge>
    <edge id=":1014529225_7" function="internal">
        <lane id=":1014529225_7_0" index="0" allow="pedestrian delivery bicycle" speed="7.06" length="10.08" shape="6098.04,4455.26 6100.65,4454.80 6102.87,4455.29 6104.70,4456.75 6106.16,4459.16"/>
    </edge>
    <edge id=":1014529225_8" function="internal">
        <lane id=":1014529225_8_0" index="0" allow="pedestrian delivery bicycle" speed="3.65" length="4.67" shape="6098.04,4455.26 6099.43,4455.64 6100.07,4456.27 6099.95,4457.15 6099.06,4458.29"/>
    </edge>
    <edge id=":1014529228_0" function="internal">
        <lane id=":1014529228_0_0" index="0" allow="pedestrian delivery bicycle" speed="5.03" length="5.01" shape="6041.26,4779.83 6040.03,4779.22 6038.90,4779.15 6037.88,4779.63 6036.96,4780.66"/>
    </edge>
    <edge id=":1014529228_1" function="internal">
        <lane id=":1014529228_1_0" index="0" disallow="tram rail_urban rail rail_electric rail_fast ship container cable_car subway aircraft wheelchair scooter drone" speed="13.89" length="9.39" shape="6041.26,4779.83 6033.54,4774.49"/>
    </edge>
    <edge id=":1014529228_2" function="internal">
        <lane id=":1014529228_2_0" index="0" disallow="tram rail_urban rail rail_electric rail_fast ship container cable_car subway aircraft wheelchair scooter drone" speed="13.89" length="9.37" shape="6035.37,4771.86 6043.07,4777.19"/>
    </edge>
    <edge id=":1014529228_3" function="internal">
        <lane id=":1014529228_3_0" index="0" allow="pedestrian delivery bicycle" speed="6.91" length="3.21" shape="6035.37,4771.86 6037.38,4773.74 6037.57,4774.16"/>
    </edge>
    <edge id=":1014529228_7" function="internal">
        <lane id=":1014529228_7_0" index="0" allow="pedestrian delivery bicycle" speed="6.91" length="6.94" shape="6037.57,4774.16 6038.31,4775.84 6038.17,4778.14 6036.96,4780.66"/>
    </edge>
    <edge id=":1014529228_4" function="internal">
        <lane id=":1014529228_4_0" index="0" allow="pedestrian delivery bicycle" speed="5.10" length="5.06" shape="6034.30,4778.88 6034.91,4777.62 6034.99,4776.46 6034.53,4775.42 6033.54,4774.49"/>
    </edge>
    <edge id=":1014529228_5" function="internal">
        <lane id=":1014529228_5_0" index="0" allow="pedestrian delivery bicycle" speed="6.85" length="10.22" shape="6034.30,4778.88 6036.17,4776.79 6038.26,4775.81 6040.56,4775.95 6043.07,4777.19"/>
    </edge>
    <edge id=":1014529228_6" function="internal">
        <lane id=":1014529228_6_0" index="0" allow="pedestrian delivery bicycle" speed="3.65" length="4.67" shape="6034.30,4778.88 6035.63,4778.33 6036.51,4778.44 6036.96,4779.22 6036.96,4780.66"/>
    </edge>
    <edge id=":1014529328_0" function="internal">
        <lane id=":1014529328_0_0" index="0" disallow="tram rail_urban rail rail_electric rail_fast ship container cable_car subway aircraft wheelchair scooter drone" speed="22.22" length="14.99" shape="5976.03,4609.42 5963.15,4601.75"/>
    </edge>
    <edge id=":1014529328_1" function="internal">
        <lane id=":1014529328_1_0" index="0" disallow="tram rail_urban rail rail_electric rail_fast ship container cable_car subway aircraft wheelchair scooter drone" speed="8.40" length="4.44" shape="5976.03,4609.42 5973.19,4607.38 5972.63,4606.63"/>
    </edge>
    <edge id=":1014529328_2" function="internal">
        <lane id=":1014529328_2_0" index="0" disallow="tram rail_urban rail rail_electric rail_fast ship container cable_car subway aircraft wheelchair scooter drone" speed="3.65" length="1.44" shape="5976.03,4609.42 5975.36,4608.14"/>
    </edge>
    <edge id=":1014529328_9" function="internal">
        <lane id=":1014529328_9_0" index="0" disallow="tram rail_urban rail rail_electric rail_fast ship container cable_car subway aircraft wheelchair scooter drone" speed="8.40" length="8.13" shape="5972.63,4606.63 5971.39,4604.97 5970.64,4602.18 5970.94,4599.01"/>
    </edge>
    <edge id=":1014529328_10" function="internal">
        <lane id=":1014529328_10_0" index="0" disallow="tram rail_urban rail rail_electric rail_fast ship container cable_car subway aircraft wheelchair scooter drone" speed="3.65" length="3.23" shape="5975.36,4608.14 5975.40,4607.25 5976.13,4606.74 5977.57,4606.62"/>
    </edge>
    <edge id=":1014529328_3" function="internal">
        <lane id=":1014529328_3_0" index="0" disallow="tram rail_urban rail rail_electric rail_fast ship container cable_car subway aircraft wheelchair scooter drone" speed="6.95" length="8.35" shape="5974.05,4599.77 5973.87,4601.82 5974.40,4603.65 5975.63,4605.25 5977.57,4606.62"/>
    </edge>
    <edge id=":1014529328_4" function="internal">
        <lane id=":1014529328_4_0" index="0" disallow="tram rail_urban rail rail_electric rail_fast ship container cable_car subway aircraft wheelchair scooter drone" speed="7.10" length="13.67" shape="5974.05,4599.77 5972.66,4602.78 5970.39,4604.11 5967.22,4603.76 5963.15,4601.75"/>
    </edge>
    <edge id=":1014529328_5" function="internal">
        <lane id=":1014529328_5_0" index="0" disallow="tram rail_urban rail rail_electric rail_fast ship container cable_car subway aircraft wheelchair scooter drone" speed="3.65" length="4.67" shape="5974.05,4599.77 5972.99,4600.75 5972.11,4600.95 5971.43,4600.37 5970.94,4599.01"/>
    </edge>
    <edge id=":1014529328_6" function="internal">
        <lane id=":1014529328_6_0" index="0" disallow="tram rail_urban rail rail_electric rail_fast ship container cable_car subway aircraft wheelchair scooter drone" speed="5.37" length="7.26" shape="5964.86,4599.04 5967.21,4600.29 5969.01,4600.70 5970.25,4600.27 5970.94,4599.01"/>
    </edge>
    <edge id=":1014529328_7" function="internal">
        <lane id=":1014529328_7_0" index="0" disallow="tram rail_urban rail rail_electric rail_fast ship container cable_car subway aircraft wheelchair scooter drone" speed="22.22" length="14.80" shape="5964.86,4599.04 5977.57,4606.62"/>
    </edge>
    <edge id=":1014529328_8" function="internal">
        <lane id=":1014529328_8_0" index="0" disallow="tram rail_urban rail rail_electric rail_fast ship container cable_car subway aircraft wheelchair scooter drone" speed="3.65" length="1.44" shape="5964.86,4599.04 5965.44,4600.36"/>
    </edge>
    <edge id=":1014529328_11" function="internal">