<?xml version="1.0" encoding="UTF-8"?>

<!-- generated on 2025-11-16T20:26:03.805460-03:00 by Eclipse SUMO netconvert 1.25.0
<netconvertConfiguration xmlns:xsi="http://www.w3.org/2001/XMLSchema-instance" xsi:noNamespaceSchemaLocation="http://sumo.dlr.de/xsd/netconvertConfiguration.xsd">

    <input>
        <osm-files value="optimized_maps/osm_files/urban_grid.osm"/>
    </input>

    <output>
        <output-file value="optimized_maps/sumo_xml/urban_grid.net.xml"/>
    </output>

    <projection>
        <proj.utm value="true"/>
    </projection>

    <processing>
        <geometry.remove value="true"/>
        <roundabouts.guess value="true"/>
    </processing>

    <tls_building>
        <tls.discard-simple value="true"/>
        <tls.join value="true"/>
        <tls.guess-signals value="true"/>
    </tls_building>

    <ramp_guessing>
        <ramps.guess value="true"/>
    </ramp_guessing>

    <junctions>
        <junctions.join value="true"/>
    </junctions>

</netconvertConfiguration>
-->

<net version="1.20" junctionCornerDetail="5" limitTurnSpeed="5.50" xmlns:xsi="http://www.w3.org/2001/XMLSchema-instance" xsi:noNamespaceSchemaLocation="http://sumo.dlr.de/xsd/net_file.xsd">

    <location netOffset="-583658.23,-4511449.20" convBoundary="0.00,0.00,840.31,966.49" origBoundary="-74.027333,40.749659,-73.999065,40.758410" projParameter="+proj=utm +zone=18 +ellps=WGS84 +datum=WGS84 +units=m +no_defs"/>

    <type id="highway.cycleway" priority="1" numLanes="1" speed="5.56" allow="bicycle" oneway="0" width="2.00"/>
    <type id="highway.footway" priority="1" numLanes="1" speed="2.78" allow="pedestrian" oneway="1" width="2.00"/>
    <type id="highway.pedestrian" priority="1" numLanes="1" speed="2.78" allow="pedestrian" oneway="1" width="2.00"/>
    <type id="highway.primary" priority="12" numLanes="2" speed="27.78" disallow="tram rail_urban rail rail_electric rail_fast ship container cable_car subway aircraft wheelchair scooter drone" oneway="0"/>
    <type id="highway.residential" priority="3" numLanes="1" speed="13.89" disallow="tram rail_urban rail rail_electric rail_fast ship container cable_car subway aircraft wheelchair scooter drone" oneway="0"/>
    <type id="highway.service" priority="1" numLanes="1" speed="5.56" allow="pedestrian delivery bicycle" oneway="0"/>
    <type id="highway.trunk" priority="13" numLanes="2" speed="27.78" disallow="pedestrian bicycle tram rail_urban rail rail_electric rail_fast ship container cable_car subway aircraft wheelchair scooter drone" oneway="0"/>
    <type id="highway.unclassified" priority="4" numLanes="1" speed="13.89" disallow="tram rail_urban rail rail_electric rail_fast ship container cable_car subway aircraft wheelchair scooter drone" oneway="0"/>

    <edge id=":12382008657_0" function="internal">
        <lane id=":12382008657_0_0" index="0" allow="pedestrian delivery bicycle" speed="3.65" length="4.67" shape="283.54,417.84 284.98,418.01 285.70,418.54 285.70,419.44 285.00,420.70"/>
    </edge>
    <edge id=":2348991695_0" function="internal">
        <lane id=":2348991695_0_0" index="0" allow="bicycle" speed="5.56" length="5.01" width="2.00" shape="133.19,466.04 131.84,461.22"/>
    </edge>
    <edge id=":2348991695_1" function="internal">
        <lane id=":2348991695_1_0" index="0" allow="bicycle" speed="2.89" length="2.92" width="2.00" shape="133.19,466.04 133.47,465.19 133.88,464.81 134.43,464.92 135.12,465.50"/>
    </edge>
    <edge id=":2348991695_2" function="internal">
        <lane id=":2348991695_2_0" index="0" allow="bicycle" speed="4.48" length="4.06" width="2.00" shape="136.86,462.38 135.85,462.85 135.22,463.53 134.97,464.41 135.12,465.50"/>
    </edge>
    <edge id=":2348991695_3" function="internal">
        <lane id=":2348991695_3_0" index="0" allow="bicycle" speed="5.15" length="5.78" width="2.00" shape="136.86,462.38 134.93,462.80 133.44,462.75 132.42,462.22 131.84,461.22"/>
    </edge>
    <edge id=":2348991695_4" function="internal">
        <lane id=":2348991695_4_0" index="0" allow="bicycle" speed="5.56" length="5.00" width="2.00" shape="133.77,460.68 135.12,465.50"/>
    </edge>
    <edge id=":2348991695_5" function="internal">
        <lane id=":2348991695_5_0" index="0" allow="bicycle" speed="2.89" length="2.92" width="2.00" shape="133.77,460.68 133.49,461.54 133.07,461.92 132.53,461.81 131.84,461.22"/>
    </edge>
    <edge id=":246580055_0" function="internal">
        <lane id=":246580055_0_0" index="0" allow="bicycle" speed="5.56" length="5.03" width="2.00" shape="128.96,450.89 127.61,446.05"/>
    </edge>
    <edge id=":246580055_1" function="internal">
        <lane id=":246580055_1_0" index="0" allow="bicycle" speed="2.89" length="1.27" width="2.00" shape="128.96,450.89 129.24,450.04 129.52,449.79"/>
    </edge>
    <edge id=":246580055_4" function="internal">
        <lane id=":246580055_4_0" index="0" allow="bicycle" speed="2.89" length="1.65" width="2.00" shape="129.52,449.79 129.66,449.66 130.21,449.77 130.89,450.36"/>
    </edge>
    <edge id=":246580055_2" function="internal">
        <lane id=":246580055_2_0" index="0" allow="bicycle" speed="5.56" length="5.03" width="2.00" shape="129.54,445.51 130.89,450.36"/>
    </edge>
    <edge id=":246580055_3" function="internal">
        <lane id=":246580055_3_0" index="0" allow="bicycle" speed="2.89" length="1.27" width="2.00" shape="129.54,445.51 129.26,446.37 128.98,446.61"/>
    </edge>
    <edge id=":246580055_5" function="internal">
        <lane id=":246580055_5_0" index="0" allow="bicycle" speed="2.89" length="1.65" width="2.00" shape="128.98,446.61 128.84,446.74 128.30,446.64 127.61,446.05"/>
    </edge>
    <edge id=":246650523_0" function="internal">
        <lane id=":246650523_0_0" index="0" allow="bicycle" speed="5.56" length="3.55" width="2.00" shape="159.66,532.03 158.04,528.86"/>
    </edge>
    <edge id=":246650523_1" function="internal">
        <lane id=":246650523_1_0" index="0" allow="bicycle" speed="2.88" length="1.30" width="2.00" shape="159.66,532.03 159.74,531.14 159.97,530.80"/>
    </edge>
    <edge id=":246650523_4" function="internal">
        <lane id=":246650523_4_0" index="0" allow="bicycle" speed="2.88" length="1.59" width="2.00" shape="159.97,530.80 160.06,530.68 160.61,530.66 161.40,531.07"/>
    </edge>
    <edge id=":246650523_2" function="internal">
        <lane id=":246650523_2_0" index="0" allow="bicycle" speed="5.56" length="3.49" width="2.00" shape="159.82,527.96 161.40,531.07"/>
    </edge>
    <edge id=":246650523_3" function="internal">
        <lane id=":246650523_3_0" index="0" allow="bicycle" speed="2.89" length="1.27" width="2.00" shape="159.82,527.96 159.72,528.85 159.50,529.15"/>
    </edge>
    <edge id=":246650523_5" function="internal">
        <lane id=":246650523_5_0" index="0" allow="bicycle" speed="2.89" length="1.65" width="2.00" shape="159.50,529.15 159.39,529.30 158.83,529.31 158.04,528.86"/>
    </edge>
    <edge id=":246650524_0" function="internal">
        <lane id=":246650524_0_0" index="0" allow="bicycle" speed="5.56" length="5.25" width="2.00" shape="136.18,476.64 134.75,471.59"/>
    </edge>
    <edge id=":246650524_1" function="internal">
        <lane id=":246650524_1_0" index="0" allow="bicycle" speed="2.89" length="1.25" width="2.00" shape="136.18,476.64 136.47,475.78 136.73,475.55"/>
    </edge>
    <edge id=":246650524_4" function="internal">
        <lane id=":246650524_4_0" index="0" allow="bicycle" speed="2.89" length="1.68" width="2.00" shape="136.73,475.55 136.89,475.41 137.44,475.52 138.12,476.12"/>
    </edge>
    <edge id=":246650524_2" function="internal">
        <lane id=":246650524_2_0" index="0" allow="bicycle" speed="5.56" length="5.31" width="2.00" shape="136.67,471.02 138.12,476.12"/>
    </edge>
    <edge id=":246650524_3" function="internal">
        <lane id=":246650524_3_0" index="0" allow="bicycle" speed="2.89" length="1.29" width="2.00" shape="136.67,471.02 136.41,471.88 136.12,472.15"/>
    </edge>
    <edge id=":246650524_5" function="internal">
        <lane id=":246650524_5_0" index="0" allow="bicycle" speed="2.89" length="1.63" width="2.00" shape="136.12,472.15 136.00,472.26 135.45,472.16 134.75,471.59"/>
    </edge>
    <edge id=":4207978500_0" function="internal">
        <lane id=":4207978500_0_0" index="0" disallow="pedestrian bicycle tram rail_urban rail rail_electric rail_fast ship container cable_car subway aircraft wheelchair scooter drone" speed="13.41" length="8.21" shape="207.82,602.56 206.46,600.57 205.22,599.42 203.97,598.28 202.61,596.29"/>
        <lane id=":4207978500_0_1" index="1" disallow="pedestrian bicycle tram rail_urban rail rail_electric rail_fast ship container cable_car subway aircraft wheelchair scooter drone" speed="13.41" length="8.21" shape="210.64,601.04 209.28,599.05 208.04,597.90 206.79,596.75 205.43,594.77"/>
        <lane id=":4207978500_0_2" index="2" disallow="pedestrian bicycle tram rail_urban rail rail_electric rail_fast ship container cable_car subway aircraft wheelchair scooter drone" speed="13.41" length="8.21" shape="213.45,599.53 212.10,597.53 210.85,596.38 209.60,595.23 208.24,593.24"/>
        <lane id=":4207978500_0_3" index="3" disallow="pedestrian bicycle tram rail_urban rail rail_electric rail_fast ship container cable_car subway aircraft wheelchair scooter drone" speed="13.41" length="8.21" shape="213.45,599.53 212.54,597.29 212.26,595.62 211.98,593.95 211.05,591.72"/>
    </edge>
    <edge id=":589520212_0" function="internal">
        <lane id=":589520212_0_0" index="0" allow="pedestrian delivery bicycle" speed="3.65" length="4.67" shape="152.07,553.10 150.62,553.05 149.87,552.58 149.79,551.68 150.39,550.38"/>
    </edge>
    <edge id=":6856689988_0" function="internal">
        <lane id=":6856689988_0_0" index="0" allow="pedestrian delivery bicycle" speed="5.42" length="6.06" shape="254.02,401.91 254.50,403.26 254.30,404.52 253.43,405.69 251.87,406.78"/>
    </edge>
    <edge id=":6856689988_1" function="internal">
        <lane id=":6856689988_1_0" index="0" allow="pedestrian delivery bicycle" speed="3.65" length="4.67" shape="254.02,401.91 253.94,403.35 253.45,404.10 252.56,404.16 251.26,403.53"/>
    </edge>
    <edge id=":6856689990_0" function="internal">
        <lane id=":6856689990_0_0" index="0" allow="pedestrian delivery bicycle" speed="4.99" length="5.06" shape="236.78,375.53 235.97,374.38 235.00,373.79 233.87,373.76 232.57,374.28"/>
    </edge>
    <edge id=":6856689990_1" function="internal">
        <lane id=":6856689990_1_0" index="0" allow="pedestrian delivery bicycle" speed="5.56" length="8.86" shape="236.78,375.53 235.75,373.11 235.26,370.88 235.28,368.85 235.83,367.01"/>
    </edge>
    <edge id=":6856689990_2" function="internal">
        <lane id=":6856689990_2_0" index="0" allow="pedestrian delivery bicycle" speed="3.65" length="4.67" shape="236.78,375.53 236.94,374.09 237.47,373.37 238.37,373.37 239.63,374.07"/>
    </edge>
    <edge id=":6856689990_3" function="internal">
        <lane id=":6856689990_3_0" index="0" allow="pedestrian delivery bicycle" speed="5.56" length="5.96" shape="238.73,368.36 238.43,369.49 238.48,370.82 238.87,372.35 239.63,374.07"/>
    </edge>
    <edge id=":6856689990_4" function="internal">
        <lane id=":6856689990_4_0" index="0" allow="pedestrian delivery bicycle" speed="5.56" length="8.79" shape="238.73,368.36 237.53,370.62 236.36,371.97 234.84,373.00 232.57,374.28"/>
    </edge>
    <edge id=":6856689990_5" function="internal">
        <lane id=":6856689990_5_0" index="0" allow="pedestrian delivery bicycle" speed="3.65" length="4.67" shape="238.73,368.36 237.50,369.11 236.61,369.14 236.05,368.44 235.83,367.01"/>
    </edge>
    <edge id=":6856689990_6" function="internal">
        <lane id=":6856689990_6_0" index="0" allow="pedestrian delivery bicycle" speed="5.56" length="6.81" shape="230.97,371.51 232.74,370.53 233.95,369.76 234.89,368.75 235.83,367.01"/>
    </edge>
    <edge id=":6856689990_7" function="internal">
        <lane id=":6856689990_7_0" index="0" allow="pedestrian delivery bicycle" speed="5.56" length="10.42" shape="230.97,371.51 233.64,370.44 235.97,370.51 237.97,371.72 239.63,374.07"/>
    </edge>
    <edge id=":6856689990_8" function="internal">
        <lane id=":6856689990_8_0" index="0" allow="pedestrian delivery bicycle" speed="3.65" length="4.67" shape="230.97,371.51 232.41,371.60 233.16,372.09 233.21,372.99 232.57,374.28"/>
    </edge>
    <edge id=":6856689995_0" function="internal">
        <lane id=":6856689995_0_0" index="0" allow="pedestrian delivery bicycle" speed="5.56" length="6.29" shape="344.15,326.52 343.36,327.33 341.69,328.18 339.88,328.94 338.67,329.46"/>
    </edge>
    <edge id=":6856689995_1" function="internal">
        <lane id=":6856689995_1_0" index="0" allow="pedestrian delivery bicycle" speed="3.65" length="4.67" shape="344.15,326.52 343.19,327.59 342.34,327.88 341.61,327.37 340.98,326.07"/>
    </edge>
    <edge id=":6856689996_0" function="internal">
        <lane id=":6856689996_0_0" index="0" allow="pedestrian delivery bicycle" speed="5.56" length="6.13" shape="242.66,387.16 239.91,381.68"/>
    </edge>
    <edge id=":6856689996_1" function="internal">
        <lane id=":6856689996_1_0" index="0" allow="pedestrian delivery bicycle" speed="3.65" length="4.67" shape="242.66,387.16 242.85,385.73 243.39,385.02 244.28,385.02 245.53,385.75"/>
    </edge>
    <edge id=":6856689996_2" function="internal">
        <lane id=":6856689996_2_0" index="0" allow="pedestrian delivery bicycle" speed="5.17" length="5.06" shape="246.96,381.48 245.84,382.34 245.23,383.33 245.12,384.47 245.53,385.75"/>
    </edge>
    <edge id=":6856689996_3" function="internal">
        <lane id=":6856689996_3_0" index="0" allow="pedestrian delivery bicycle" speed="5.56" length="7.88" shape="246.96,381.48 244.44,382.68 242.43,383.11 240.92,382.77 239.91,381.68"/>
    </edge>
    <edge id=":6856689996_4" function="internal">
        <lane id=":6856689996_4_0" index="0" allow="pedestrian delivery bicycle" speed="5.56" length="6.18" shape="242.76,380.22 245.53,385.75"/>
    </edge>
    <edge id=":6856689996_5" function="internal">
        <lane id=":6856689996_5_0" index="0" allow="pedestrian delivery bicycle" speed="3.65" length="4.67" shape="242.76,380.22 242.59,381.66 242.06,382.38 241.17,382.38 239.91,381.68"/>
    </edge>
    <edge id=":6856689997_0" function="internal">
        <lane id=":6856689997_0_0" index="0" allow="pedestrian delivery bicycle" speed="5.56" length="8.35" shape="215.01,387.54 213.94,385.31 213.12,383.82 212.16,382.42 210.64,380.46"/>
    </edge>
    <edge id=":6856689997_1" function="internal">
        <lane id=":6856689997_1_0" index="0" allow="pedestrian delivery bicycle" speed="5.56" length="9.78" shape="215.01,387.54 214.22,385.01 214.38,382.78 215.51,380.85 217.60,379.22"/>
    </edge>
    <edge id=":6856689997_2" function="internal">
        <lane id=":6856689997_2_0" index="0" allow="pedestrian delivery bicycle" speed="3.65" length="4.67" shape="215.01,387.54 215.22,386.11 215.77,385.41 216.66,385.43 217.90,386.17"/>
    </edge>
    <edge id=":6856689997_3" function="internal">
        <lane id=":6856689997_3_0" index="0" allow="pedestrian delivery bicycle" speed="5.13" length="4.91" shape="219.20,381.99 218.15,382.81 217.59,383.78 217.50,384.90 217.90,386.17"/>
    </edge>
    <edge id=":6856689997_4" function="internal">
        <lane id=":6856689997_4_0" index="0" allow="pedestrian delivery bicycle" speed="5.56" length="9.63" shape="219.20,381.99 216.77,382.99 214.53,383.07 212.49,382.23 210.64,380.46"/>
    </edge>
    <edge id=":6856689997_5" function="internal">
        <lane id=":6856689997_5_0" index="0" allow="pedestrian delivery bicycle" speed="3.65" length="4.67" shape="219.20,381.99 217.76,381.90 217.01,381.40 216.96,380.51 217.60,379.22"/>
    </edge>
    <edge id=":6856689997_6" function="internal">
        <lane id=":6856689997_6_0" index="0" allow="pedestrian delivery bicycle" speed="5.29" length="4.99" shape="213.16,378.49 214.10,379.38 215.16,379.80 216.33,379.75 217.60,379.22"/>
    </edge>
    <edge id=":6856689997_7" function="internal">
        <lane id=":6856689997_7_0" index="0" allow="pedestrian delivery bicycle" speed="5.56" length="9.06" shape="213.16,378.49 214.80,380.61 215.85,382.13 216.73,383.75 217.90,386.17"/>
    </edge>
    <edge id=":6856689997_8" function="internal">
        <lane id=":6856689997_8_0" index="0" allow="pedestrian delivery bicycle" speed="3.65" length="4.67" shape="213.16,378.49 213.27,379.92 212.89,380.73 212.01,380.91 210.64,380.46"/>
    </edge>
    <edge id=":6856690002_0" function="internal">
        <lane id=":6856690002_0_0" index="0" allow="pedestrian delivery bicycle" speed="5.56" length="2.73" shape="165.61,394.55 165.31,393.80 165.18,393.25 165.19,392.69 165.31,391.90"/>
    </edge>
    <edge id=":6856690002_1" function="internal">
        <lane id=":6856690002_1_0" index="0" allow="pedestrian delivery bicycle" speed="5.56" length="0.91" shape="168.46,392.44 168.42,392.70 168.42,392.89 168.46,393.07 168.56,393.32"/>
    </edge>
    <edge id=":8261122120_0" function="internal">
        <lane id=":8261122120_0_0" index="0" allow="delivery" speed="5.04" length="5.00" shape="229.23,572.71 228.12,573.52 227.54,574.49 227.48,575.61 227.94,576.90"/>
        <lane id=":8261122120_0_1" index="1" allow="delivery" speed="6.08" length="7.76" shape="229.23,572.71 226.88,574.17 225.41,575.61 224.83,577.02 225.12,578.41"/>
    </edge>
    <edge id=":8261122120_2" function="internal">
        <lane id=":8261122120_2_0" index="0" allow="pedestrian delivery bicycle" speed="3.65" length="4.67" shape="229.23,572.71 227.80,572.57 227.07,572.04 227.05,571.15 227.74,569.88"/>
    </edge>
    <edge id=":8261122120_3" function="internal">
        <lane id=":8261122120_3_0" index="0" allow="delivery" speed="5.05" length="5.01" shape="223.54,568.60 224.34,569.70 225.31,570.29 226.44,570.35 227.74,569.88"/>
    </edge>
    <edge id=":8261122120_4" function="internal">
        <lane id=":8261122120_4_0" index="0" disallow="pedestrian bicycle tram rail_urban rail rail_electric rail_fast ship container cable_car subway aircraft wheelchair scooter drone" speed="13.41" length="9.41" shape="223.54,568.60 227.94,576.90"/>
        <lane id=":8261122120_4_1" index="1" disallow="pedestrian bicycle tram rail_urban rail rail_electric rail_fast ship container cable_car subway aircraft wheelchair scooter drone" speed="13.41" length="9.41" shape="220.71,570.09 225.12,578.41"/>
        <lane id=":8261122120_4_2" index="2" disallow="pedestrian bicycle tram rail_urban rail rail_electric rail_fast ship container cable_car subway aircraft wheelchair scooter drone" speed="13.41" length="9.41" shape="217.88,571.59 222.29,579.91"/>
        <lane id=":8261122120_4_3" index="3" disallow="pedestrian bicycle tram rail_urban rail rail_electric rail_fast ship container cable_car subway aircraft wheelchair scooter drone" speed="13.41" length="9.41" shape="215.05,573.08 219.46,581.41"/>
    </edge>
    <edge id=":8261122121_0" function="internal">
        <lane id=":8261122121_0_0" index="0" allow="pedestrian delivery bicycle" speed="6.10" length="7.70" shape="365.35,439.05 365.10,437.69 365.70,436.30 367.17,434.87 369.49,433.40"/>
    </edge>
    <edge id=":8261122121_1" function="internal">
        <lane id=":8261122121_1_0" index="0" allow="pedestrian delivery bicycle" speed="3.65" length="4.67" shape="365.35,439.05 365.52,437.62 366.04,436.89 366.94,436.88 368.20,437.58"/>
    </edge>
    <edge id=":8261122121_2" function="internal">
        <lane id=":8261122121_2_0" index="0" disallow="tram rail_urban rail rail_electric rail_fast ship container cable_car subway aircraft wheelchair scooter drone" speed="11.18" length="8.08" shape="361.09,432.70 363.24,432.56 364.69,432.24 366.07,431.62 367.98,430.58"/>
        <lane id=":8261122121_2_1" index="1" disallow="tram rail_urban rail rail_electric rail_fast ship container cable_car subway aircraft wheelchair scooter drone" speed="11.18" length="8.08" shape="361.18,435.89 363.77,435.74 365.53,435.37 367.19,434.64 369.49,433.40"/>
    </edge>
    <edge id=":8261122121_4" function="internal">
        <lane id=":8261122121_4_0" index="0" allow="pedestrian delivery bicycle" speed="7.21" length="7.48" shape="361.18,435.89 363.89,435.93 365.96,436.23 367.40,436.78 368.20,437.58"/>
    </edge>
    <edge id=":8261122122_0" function="internal">
        <lane id=":8261122122_0_0" index="0" allow="pedestrian delivery bicycle" speed="5.56" length="5.04" shape="235.21,569.54 230.76,571.91"/>
    </edge>
    <edge id=":8261122122_1" function="internal">
        <lane id=":8261122122_1_0" index="0" allow="pedestrian delivery bicycle" speed="3.65" length="1.44" shape="235.21,569.54 233.78,569.40"/>
    </edge>
    <edge id=":8261122122_4" function="internal">
        <lane id=":8261122122_4_0" index="0" allow="pedestrian delivery bicycle" speed="3.65" length="3.23" shape="233.78,569.40 233.05,568.88 233.02,567.99 233.70,566.72"/>
    </edge>
    <edge id=":8261122122_2" function="internal">
        <lane id=":8261122122_2_0" index="0" allow="pedestrian delivery bicycle" speed="5.56" length="5.02" shape="229.27,569.08 233.70,566.72"/>
    </edge>
    <edge id=":8261122122_3" function="internal">
        <lane id=":8261122122_3_0" index="0" allow="pedestrian delivery bicycle" speed="3.65" length="1.44" shape="229.27,569.08 230.70,569.22"/>
    </edge>
    <edge id=":8261122122_5" function="internal">
        <lane id=":8261122122_5_0" index="0" allow="pedestrian delivery bicycle" speed="3.65" length="3.23" shape="230.70,569.22 231.43,569.74 231.45,570.64 230.76,571.91"/>
    </edge>
    <edge id=":9143574639_0" function="internal">
        <lane id=":9143574639_0_0" index="0" disallow="tram rail_urban rail rail_electric rail_fast ship container cable_car subway aircraft wheelchair scooter drone" speed="11.18" length="8.19" shape="209.74,429.21 207.73,430.51 206.56,431.73 205.40,432.95 203.41,434.29"/>
        <lane id=":9143574639_0_1" index="1" disallow="tram rail_urban rail rail_electric rail_fast ship container cable_car subway aircraft wheelchair scooter drone" speed="11.18" length="8.19" shape="209.74,429.21 207.49,430.07 205.81,430.31 204.14,430.57 201.91,431.47"/>
    </edge>
    <edge id=":9143574642_0" function="internal">
        <lane id=":9143574642_0_0" index="0" allow="bicycle" speed="2.89" length="2.92" width="2.00" shape="32.07,84.93 32.49,84.13 32.96,83.84 33.48,84.03 34.05,84.73"/>
    </edge>
    <edge id=":9423683507_0" function="internal">
        <lane id=":9423683507_0_0" index="0" allow="delivery" speed="5.04" length="5.00" shape="237.62,588.47 236.51,589.28 235.93,590.25 235.87,591.38 236.34,592.67"/>
        <lane id=":9423683507_0_1" index="1" allow="delivery" speed="6.08" length="7.77" shape="237.62,588.47 235.27,589.94 233.81,591.38 233.23,592.80 233.53,594.18"/>
    </edge>
    <edge id=":9423683507_2" function="internal">
        <lane id=":9423683507_2_0" index="0" allow="pedestrian delivery bicycle" speed="3.65" length="4.67" shape="237.62,588.47 236.18,588.33 235.45,587.81 235.43,586.92 236.11,585.65"/>
    </edge>
    <edge id=":9423683507_3" function="internal">
        <lane id=":9423683507_3_0" index="0" allow="delivery" speed="5.04" length="5.01" shape="231.91,584.37 232.72,585.48 233.69,586.06 234.82,586.12 236.11,585.65"/>
    </edge>
    <edge id=":9423683507_4" function="internal">
        <lane id=":9423683507_4_0" index="0" disallow="pedestrian bicycle tram rail_urban rail rail_electric rail_fast ship container cable_car subway aircraft wheelchair scooter drone" speed="13.41" length="9.43" shape="231.91,584.37 236.34,592.67"/>
        <lane id=":9423683507_4_1" index="1" disallow="pedestrian bicycle tram rail_urban rail rail_electric rail_fast ship container cable_car subway aircraft wheelchair scooter drone" speed="13.41" length="9.43" shape="229.08,585.87 233.53,594.18"/>
        <lane id=":9423683507_4_2" index="2" disallow="pedestrian bicycle tram rail_urban rail rail_electric rail_fast ship container cable_car subway aircraft wheelchair scooter drone" speed="13.41" length="9.43" shape="226.26,587.37 230.71,595.70"/>
        <lane id=":9423683507_4_3" index="3" disallow="pedestrian bicycle tram rail_urban rail rail_electric rail_fast ship container cable_car subway aircraft wheelchair scooter drone" speed="13.41" length="9.43" shape="223.43,588.87 227.89,597.21"/>
    </edge>
    <edge id=":9423683518_0" function="internal">
        <lane id=":9423683518_0_0" index="0" allow="pedestrian delivery bicycle" speed="3.65" length="4.67" shape="449.87,461.09 451.30,461.21 452.04,461.72 452.08,462.61 451.41,463.89"/>
    </edge>
    <edge id=":9423683520_0" function="internal">
        <lane id=":9423683520_0_0" index="0" allow="pedestrian delivery bicycle" speed="5.56" length="5.02" shape="243.63,585.25 239.21,587.62"/>
    </edge>
    <edge id=":9423683520_1" function="internal">
        <lane id=":9423683520_1_0" index="0" allow="pedestrian delivery bicycle" speed="3.65" length="1.44" shape="243.63,585.25 242.20,585.12"/>
    </edge>
    <edge id=":9423683520_4" function="internal">
        <lane id=":9423683520_4_0" index="0" allow="pedestrian delivery bicycle" speed="3.65" length="3.23" shape="242.20,585.12 241.47,584.60 241.44,583.71 242.12,582.43"/>
    </edge>
    <edge id=":9423683520_2" function="internal">
        <lane id=":9423683520_2_0" index="0" allow="pedestrian delivery bicycle" speed="5.56" length="5.01" shape="237.71,584.80 242.12,582.43"/>
    </edge>
    <edge id=":9423683520_3" function="internal">
        <lane id=":9423683520_3_0" index="0" allow="pedestrian delivery bicycle" speed="3.65" length="1.44" shape="237.71,584.80 239.14,584.94"/>
    </edge>
    <edge id=":9423683520_5" function="internal">
        <lane id=":9423683520_5_0" index="0" allow="pedestrian delivery bicycle" speed="3.65" length="3.23" shape="239.14,584.94 239.87,585.46 239.89,586.35 239.21,587.62"/>
    </edge>
    <edge id=":9423683538_0" function="internal">
        <lane id=":9423683538_0_0" index="0" allow="delivery" speed="5.04" length="5.01" shape="218.62,559.38 219.44,560.48 220.41,561.05 221.54,561.09 222.83,560.61"/>
    </edge>
    <edge id=":9423683538_1" function="internal">
        <lane id=":9423683538_1_0" index="0" disallow="pedestrian bicycle tram rail_urban rail rail_electric rail_fast ship container cable_car subway aircraft wheelchair scooter drone" speed="13.41" length="6.12" shape="218.62,559.38 221.54,564.82"/>
        <lane id=":9423683538_1_1" index="1" disallow="pedestrian bicycle tram rail_urban rail rail_electric rail_fast ship container cable_car subway aircraft wheelchair scooter drone" speed="13.41" length="6.12" shape="215.81,560.91 218.71,566.32"/>
        <lane id=":9423683538_1_2" index="2" disallow="pedestrian bicycle tram rail_urban rail rail_electric rail_fast ship container cable_car subway aircraft wheelchair scooter drone" speed="13.41" length="6.12" shape="213.00,562.44 215.88,567.81"/>
        <lane id=":9423683538_1_3" index="3" disallow="pedestrian bicycle tram rail_urban rail rail_electric rail_fast ship container cable_car subway aircraft wheelchair scooter drone" speed="13.41" length="6.12" shape="210.19,563.97 213.06,569.31"/>
    </edge>
    <edge id=":9423683548_0" function="internal">
        <lane id=":9423683548_0_0" index="0" allow="pedestrian delivery bicycle" speed="5.56" length="5.01" shape="224.27,559.81 228.66,557.40"/>
    </edge>
    <edge id=":9441256023_0" function="internal">
        <lane id=":9441256023_0_0" index="0" allow="bicycle" speed="2.89" length="2.92" width="2.00" shape="394.51,964.01 394.41,964.91 394.08,965.36 393.52,965.37 392.73,964.93"/>
    </edge>
    <edge id=":cluster_12161224637_247073198_247073199_247073284_#3more_0" function="internal">
        <lane id=":cluster_12161224637_247073198_247073199_247073284_#3more_0_0" index="0" disallow="pedestrian bicycle tram rail_urban rail rail_electric rail_fast ship container cable_car subway aircraft wheelchair scooter drone" speed="13.41" length="31.77" shape="144.88,473.52 136.05,442.78"/>
        <lane id=":cluster_12161224637_247073198_247073199_247073284_#3more_0_1" index="1" disallow="pedestrian bicycle tram rail_urban rail rail_electric rail_fast ship container cable_car subway aircraft wheelchair scooter drone" speed="13.41" length="31.77" shape="147.90,472.47 139.14,441.93"/>
        <lane id=":cluster_12161224637_247073198_247073199_247073284_#3more_0_2" index="2" disallow="pedestrian bicycle tram rail_urban rail rail_electric rail_fast ship container cable_car subway aircraft wheelchair scooter drone" speed="13.41" length="31.77" shape="150.93,471.43 142.22,441.09"/>
    </edge>
    <edge id=":cluster_12161224637_247073198_247073199_247073284_#3more_3" function="internal">
        <lane id=":cluster_12161224637_247073198_247073199_247073284_#3more_3_0" index="0" disallow="pedestrian bicycle tram rail_urban rail rail_electric rail_fast ship container cable_car subway aircraft wheelchair scooter drone" speed="9.78" length="19.12" shape="176.87,448.38 172.79,451.35 170.41,455.05 169.74,459.45 170.78,464.57"/>
        <lane id=":cluster_12161224637_247073198_247073199_247073284_#3more_3_1" index="1" disallow="pedestrian bicycle tram rail_urban rail rail_electric rail_fast ship container cable_car subway aircraft wheelchair scooter drone" speed="10.33" length="21.48" shape="176.87,448.38 171.53,451.99 168.22,456.07 166.97,460.61 167.75,465.61"/>
    </edge>
    <edge id=":cluster_12161224637_247073198_247073199_247073284_#3more_5" function="internal">
        <lane id=":cluster_12161224637_247073198_247073199_247073284_#3more_5_0" index="0" allow="bicycle" speed="8.37" length="41.66" width="2.00" shape="177.15,448.91 167.93,452.74 155.90,456.73 144.63,460.10 137.69,462.13"/>
    </edge>