<?xml version="1.0" encoding="UTF-8"?>

<!-- generated on 2025-11-16T20:25:57.863461-03:00 by Eclipse SUMO netconvert 1.25.0
<netconvertConfiguration xmlns:xsi="http://www.w3.org/2001/XMLSchema-instance" xsi:noNamespaceSchemaLocation="http://sumo.dlr.de/xsd/netconvertConfiguration.xsd">

    <input>
        <osm-files value="optimized_maps/osm_files/urban_dense.osm"/>
    </input>

    <output>
        <output-file value="optimized_maps/sumo_xml/urban_dense.net.xml"/>
    </output>

    <projection>
        <proj.utm value="true"/>
    </projection>

    <processing>
        <geometry.remove value="true"/>
        <roundabouts.guess value="true"/>
    </processing>

    <tls_building>
        <tls.discard-simple value="true"/>
        <tls.join value="true"/>
        <tls.guess-signals value="true"/>
    </tls_building>

    <ramp_guessing>
        <ramps.guess value="true"/>
    </ramp_guessing>

    <junctions>
        <junctions.join value="true"/>
    </junctions>

</netconvertConfiguration>
-->

<net version="1.20" junctionCornerDetail="5" limitTurnSpeed="5.50" xmlns:xsi="http://www.w3.org/2001/XMLSchema-instance" xsi:noNamespaceSchemaLocation="http://sumo.dlr.de/xsd/net_file.xsd">

    <location netOffset="-391923.33,-5819272.32" convBoundary="0.00,0.00,541.22,1006.45" origBoundary="13.407175,52.512896,13.415030,52.521973" projParameter="+proj=utm +zone=33 +ellps=WGS84 +datum=WGS84 +units=m +no_defs"/>

    <type id="highway.cycleway" priority="1" numLanes="1" speed="5.56" allow="bicycle" oneway="0" width="2.00"/>
    <type id="highway.footway" priority="1" numLanes="1" speed="2.78" allow="pedestrian" oneway="1" width="2.00"/>
    <type id="highway.pedestrian" priority="1" numLanes="1" speed="2.78" allow="pedestrian" oneway="1" width="2.00"/>
    <type id="highway.primary" priority="12" numLanes="2" speed="27.78" disallow="tram rail_urban rail rail_electric rail_fast ship container cable_car subway aircraft wheelchair scooter drone" oneway="0"/>
    <type id="railway.rail" priority="20" numLanes="1" speed="44.44" allow="rail" oneway="1"/>
    <type id="railway.subway" priority="18" numLanes="1" speed="27.78" allow="subway" oneway="1"/>
    <type id="railway.tram" priority="17" numLanes="1" speed="13.89" allow="tram" oneway="1"/>

    <edge id=":13105519355_0" function="internal">
        <lane id=":13105519355_0_0" index="0" allow="bicycle" speed="5.56" length="5.03" width="2.00" shape="205.26,756.92 201.19,753.96"/>
    </edge>
    <edge id=":13105519355_1" function="internal">
        <lane id=":13105519355_1_0" index="0" allow="bicycle" speed="2.89" length="1.27" width="2.00" shape="205.26,756.92 204.94,756.07 205.00,755.71"/>
    </edge>
    <edge id=":13105519355_4" function="internal">
        <lane id=":13105519355_4_0" index="0" allow="bicycle" speed="2.89" length="1.65" width="2.00" shape="205.00,755.71 205.03,755.52 205.53,755.26 206.43,755.30"/>
    </edge>
    <edge id=":13105519355_2" function="internal">
        <lane id=":13105519355_2_0" index="0" allow="bicycle" speed="5.56" length="5.03" width="2.00" shape="202.36,752.34 206.43,755.30"/>
    </edge>
    <edge id=":13105519355_3" function="internal">
        <lane id=":13105519355_3_0" index="0" allow="bicycle" speed="2.89" length="1.27" width="2.00" shape="202.36,752.34 202.68,753.19 202.62,753.55"/>
    </edge>
    <edge id=":13105519355_5" function="internal">
        <lane id=":13105519355_5_0" index="0" allow="bicycle" speed="2.89" length="1.65" width="2.00" shape="202.62,753.55 202.59,753.74 202.09,754.00 201.19,753.96"/>
    </edge>
    <edge id=":13105519359_0" function="internal">
        <lane id=":13105519359_0_0" index="0" allow="bicycle" speed="5.56" length="7.69" width="2.00" shape="167.78,729.71 161.56,725.19"/>
    </edge>
    <edge id=":13105519359_1" function="internal">
        <lane id=":13105519359_1_0" index="0" allow="bicycle" speed="2.89" length="1.27" width="2.00" shape="167.78,729.71 167.47,728.86 167.53,728.50"/>
    </edge>
    <edge id=":13105519359_4" function="internal">
        <lane id=":13105519359_4_0" index="0" allow="bicycle" speed="2.89" length="1.65" width="2.00" shape="167.53,728.50 167.56,728.31 168.06,728.05 168.96,728.09"/>
    </edge>
    <edge id=":13105519359_2" function="internal">
        <lane id=":13105519359_2_0" index="0" allow="bicycle" speed="5.56" length="7.69" width="2.00" shape="162.74,723.57 168.96,728.09"/>
    </edge>
    <edge id=":13105519359_3" function="internal">
        <lane id=":13105519359_3_0" index="0" allow="bicycle" speed="2.89" length="1.27" width="2.00" shape="162.74,723.57 163.05,724.42 162.99,724.78"/>
    </edge>
    <edge id=":13105519359_5" function="internal">
        <lane id=":13105519359_5_0" index="0" allow="bicycle" speed="2.89" length="1.65" width="2.00" shape="162.99,724.78 162.96,724.97 162.46,725.23 161.56,725.19"/>
    </edge>
    <edge id=":2094266900_0" function="internal">
        <lane id=":2094266900_0_0" index="0" allow="subway" speed="19.44" length="2.97" shape="313.30,839.71 315.66,841.51"/>
    </edge>
    <edge id=":2094266911_0" function="internal">
        <lane id=":2094266911_0_0" index="0" allow="subway" speed="19.44" length="2.95" shape="339.61,866.36 341.94,868.18"/>
    </edge>
    <edge id=":298352344_0" function="internal">
        <lane id=":298352344_0_0" index="0" allow="subway" speed="3.08" length="2.09" shape="238.99,784.03 238.28,783.83 238.01,783.85 238.18,784.10 238.80,784.56"/>
    </edge>
    <edge id=":298352344_1" function="internal">
        <lane id=":298352344_1_0" index="0" allow="subway" speed="19.44" length="2.26" shape="236.94,783.28 238.80,784.56"/>
    </edge>
    <edge id=":3672491301_0" function="internal">
        <lane id=":3672491301_0_0" index="0" allow="rail rail_electric rail_fast" speed="16.67" length="0.29" shape="349.90,866.59 350.12,866.39"/>
    </edge>
    <edge id=":6494918323_0" function="internal">
        <lane id=":6494918323_0_0" index="0" allow="subway" speed="2.78" length="1.47" shape="226.78,779.22 226.31,778.96 226.13,778.89 226.27,779.02 226.71,779.35"/>
    </edge>
    <edge id=":6494918323_1" function="internal">
        <lane id=":6494918323_1_0" index="0" allow="subway" speed="19.44" length="2.85" shape="224.39,777.70 226.71,779.35"/>
    </edge>
    <edge id=":6494918324_0" function="internal">
        <lane id=":6494918324_0_0" index="0" allow="subway" speed="19.44" length="2.68" shape="251.58,793.32 253.76,794.88"/>
    </edge>
    <edge id=":6494918325_0" function="internal">
        <lane id=":6494918325_0_0" index="0" allow="subway" speed="19.44" length="3.10" shape="329.75,872.62 332.16,874.57"/>
    </edge>
    <edge id=":6494918326_0" function="internal">
        <lane id=":6494918326_0_0" index="0" allow="subway" speed="19.44" length="3.07" shape="315.24,854.47 317.66,856.36"/>
    </edge>
    <edge id=":6494918327_0" function="internal">
        <lane id=":6494918327_0_0" index="0" allow="subway" speed="2.88" length="1.65" shape="252.79,811.73 252.24,811.46 252.04,811.42 252.17,811.60 252.65,811.99"/>
    </edge>
    <edge id=":6494918327_1" function="internal">
        <lane id=":6494918327_1_0" index="0" allow="subway" speed="19.44" length="2.73" shape="250.49,810.31 252.65,811.99"/>
    </edge>
    <edge id=":6494918328_0" function="internal">
        <lane id=":6494918328_0_0" index="0" allow="subway" speed="19.44" length="2.78" shape="273.47,822.24 275.68,823.92"/>
    </edge>
    <edge id=":6494918329_0" function="internal">
        <lane id=":6494918329_0_0" index="0" allow="subway" speed="2.97" length="1.84" shape="300.48,842.06 299.87,841.80 299.63,841.78 299.77,842.00 300.29,842.45"/>
    </edge>
    <edge id=":6494918329_1" function="internal">
        <lane id=":6494918329_1_0" index="0" allow="subway" speed="19.44" length="2.78" shape="298.11,840.73 300.29,842.45"/>
    </edge>
    <edge id=":6494918330_0" function="internal">
        <lane id=":6494918330_0_0" index="0" allow="subway" speed="19.44" length="2.60" shape="319.60,850.64 321.65,852.23"/>
    </edge>
    <edge id=":8793912187_0" function="internal">
        <lane id=":8793912187_0_0" index="0" allow="bicycle" speed="2.89" length="2.92" width="2.00" shape="336.81,855.57 336.96,856.46 336.77,856.99 336.23,857.15 335.35,856.95"/>
    </edge>
    <edge id=":8793912191_0" function="internal">
        <lane id=":8793912191_0_0" index="0" allow="bicycle" speed="5.56" length="5.81" width="2.00" shape="327.97,849.01 324.18,844.61"/>
    </edge>
    <edge id=":8793912191_1" function="internal">
        <lane id=":8793912191_1_0" index="0" allow="bicycle" speed="2.89" length="1.24" width="2.00" shape="327.97,849.01 327.88,848.12 328.02,847.81"/>
    </edge>
    <edge id=":8793912191_4" function="internal">
        <lane id=":8793912191_4_0" index="0" allow="bicycle" speed="2.89" length="1.68" width="2.00" shape="328.02,847.81 328.11,847.61 328.65,847.48 329.51,847.74"/>
    </edge>
    <edge id=":8793912191_2" function="internal">
        <lane id=":8793912191_2_0" index="0" allow="bicycle" speed="5.56" length="5.89" width="2.00" shape="325.68,843.28 329.51,847.74"/>
    </edge>
    <edge id=":8793912191_3" function="internal">
        <lane id=":8793912191_3_0" index="0" allow="bicycle" speed="2.89" length="1.30" width="2.00" shape="325.68,843.28 325.80,844.17 325.66,844.54"/>
    </edge>
    <edge id=":8793912191_5" function="internal">
        <lane id=":8793912191_5_0" index="0" allow="bicycle" speed="2.89" length="1.62" width="2.00" shape="325.66,844.54 325.60,844.69 325.06,844.83 324.18,844.61"/>
    </edge>
    <edge id=":8793912192_0" function="internal">
        <lane id=":8793912192_0_0" index="0" allow="bicycle" speed="2.89" length="2.92" width="2.00" shape="104.71,683.94 104.39,683.10 104.48,682.55 104.97,682.29 105.87,682.32"/>
    </edge>
    <edge id=":8793912194_0" function="internal">
        <lane id=":8793912194_0_0" index="0" allow="bicycle" speed="5.56" length="7.72" width="2.00" shape="271.01,804.66 264.77,800.12"/>
    </edge>
    <edge id=":8793912194_1" function="internal">
        <lane id=":8793912194_1_0" index="0" allow="bicycle" speed="2.89" length="1.27" width="2.00" shape="271.01,804.66 270.70,803.81 270.76,803.45"/>
    </edge>
    <edge id=":8793912194_4" function="internal">
        <lane id=":8793912194_4_0" index="0" allow="bicycle" speed="2.89" length="1.65" width="2.00" shape="270.76,803.45 270.79,803.26 271.29,803.00 272.19,803.04"/>
    </edge>
    <edge id=":8793912194_2" function="internal">
        <lane id=":8793912194_2_0" index="0" allow="bicycle" speed="5.56" length="7.72" width="2.00" shape="265.94,798.50 272.19,803.04"/>
    </edge>
    <edge id=":8793912194_3" function="internal">
        <lane id=":8793912194_3_0" index="0" allow="bicycle" speed="2.89" length="1.27" width="2.00" shape="265.94,798.50 266.25,799.35 266.19,799.71"/>
    </edge>
    <edge id=":8793912194_5" function="internal">
        <lane id=":8793912194_5_0" index="0" allow="bicycle" speed="2.89" length="1.65" width="2.00" shape="266.19,799.71 266.16,799.90 265.67,800.16 264.77,800.12"/>
    </edge>
    <edge id=":cluster_4565322442_4565322443_0" function="internal">
        <lane id=":cluster_4565322442_4565322443_0_0" index="0" allow="tram" speed="2.78" length="5.83" shape="308.30,884.26 304.33,888.53"/>
    </edge>
    <edge id=":cluster_4565322442_4565322443_1" function="internal">
        <lane id=":cluster_4565322442_4565322443_1_0" index="0" allow="tram" speed="2.78" length="5.93" shape="301.68,886.09 305.71,881.75"/>
    </edge>

    <edge id="-687804455#0" from="13105519358" to="2121324863" priority="1" type="highway.pedestrian" shape="165.93,719.49 155.69,712.07 116.89,683.38 113.52,680.90">
        <lane id="-687804455#0_0" index="0" allow="pedestrian" speed="2.78" length="63.61" width="2.00" shape="164.14,719.43 155.10,712.88 116.30,684.18 112.93,681.71"/>
    </edge>
    <edge id="-687804455#1" from="13105519353" to="13105519358" priority="1" type="highway.pedestrian" shape="207.29,749.89 182.14,731.22 165.93,719.49">
        <lane id="-687804455#1_0" index="0" allow="pedestrian" speed="2.78" length="44.99" width="2.00" shape="204.70,749.21 181.55,732.03 168.46,722.55"/>
    </edge>
    <edge id="-687804455#2" from="3182529382" to="13105519353" priority="1" type="highway.pedestrian">
        <lane id="-687804455#2_0" index="0" allow="pedestrian" speed="2.78" length="76.47" width="2.00" shape="270.16,797.82 208.76,752.23"/>
    </edge>
    <edge id="-687804455#3" from="10196188861" to="3182529382" priority="1" type="highway.pedestrian">
        <lane id="-687804455#3_0" index="0" allow="pedestrian" speed="2.78" length="21.69" width="2.00" shape="291.52,814.38 274.42,801.03"/>
    </edge>
    <edge id="-687804455#4" from="29219464" to="10196188861" priority="1" type="highway.pedestrian">
        <lane id="-687804455#4_0" index="0" allow="pedestrian" speed="2.78" length="39.86" width="2.00" shape="326.87,842.00 295.46,817.47"/>
    </edge>
    <edge id="-687804455#5" from="10247148371" to="29219464" priority="1" type="highway.pedestrian" shape="358.58,871.70 344.65,861.14 329.40,842.71">
        <lane id="-687804455#5_0" index="0" allow="pedestrian" speed="2.78" length="38.59" width="2.00" shape="357.98,872.50 343.95,861.87 330.57,845.69"/>
    </edge>
    <edge id="-949912614#0" from="8793912191" to="8793912187" priority="1" type="highway.cycleway" shape="326.90,846.15 329.54,849.34 336.08,856.26">
        <lane id="-949912614#0_0" index="0" allow="bicycle" speed="5.56" length="10.71" width="2.00" shape="329.51,847.74 330.29,848.68 336.81,855.57"/>
    </edge>
    <edge id="-949912614#1" from="8793912194" to="8793912191" priority="1" type="highway.cycleway" shape="268.48,801.58 289.26,816.67 323.71,842.57 326.90,846.15">
        <lane id="-949912614#1_0" index="0" allow="bicycle" speed="5.56" length="66.97" width="2.00" shape="272.19,803.04 289.85,815.87 324.39,841.83 325.68,843.28"/>
    </edge>
    <edge id="-949912614#2" from="13105519355" to="8793912194" priority="1" type="highway.cycleway">
        <lane id="-949912614#2_0" index="0" allow="bicycle" speed="5.56" length="73.54" width="2.00" shape="206.43,755.30 265.94,798.50"/>
    </edge>
    <edge id="-949912614#3" from="13105519359" to="13105519355" priority="1" type="highway.cycleway">
        <lane id="-949912614#3_0" index="0" allow="bicycle" speed="5.56" length="41.28" width="2.00" shape="168.96,728.09 202.36,752.34"/>
    </edge>
    <edge id="-949912614#4" from="8793912192" to="13105519359" priority="1" type="highway.cycleway" shape="105.29,683.13 109.39,686.07 112.90,688.62 165.26,726.64">
        <lane id="-949912614#4_0" index="0" allow="bicycle" speed="5.56" length="70.25" width="2.00" shape="105.87,682.32 109.98,685.26 113.49,687.81 162.74,723.57"/>
    </edge>
    <edge id="1051072456" from="297091697" to="298352344" priority="18" type="railway.subway" spreadType="center" shape="343.10,726.65 337.12,734.26 330.20,745.65 325.39,754.18 316.27,765.93 308.99,772.66 300.76,778.32 292.78,782.32 284.59,785.21 277.09,787.02 271.47,787.86 261.87,788.33 252.98,787.81 243.84,785.62 237.12,783.41">
        <lane id="1051072456_0" index="0" allow="subway" speed="27.78" length="131.60" shape="343.10,726.65 337.12,734.26 330.20,745.65 325.39,754.18 316.27,765.93 308.99,772.66 300.76,778.32 292.78,782.32 284.59,785.21 277.09,787.02 271.47,787.86 261.87,788.33 252.98,787.81 243.84,785.62 238.99,784.03"/>
    </edge>
    <edge id="1425774288#0" from="13105519347" to="13105519349" priority="1" type="highway.pedestrian" spreadType="center">
        <lane id="1425774288#0_0" index="0" allow="pedestrian" speed="2.78" length="77.03" width="2.00" shape="313.84,857.84 252.27,811.54"/>
    </edge>
    <edge id="1425774288#1" from="13105519349" to="13105519351" priority="1" type="highway.pedestrian" spreadType="center">
        <lane id="1425774288#1_0" index="0" allow="pedestrian" speed="2.78" length="51.95" width="2.00" shape="247.11,807.66 205.58,776.44"/>
    </edge>
    <edge id="1425774288#2" from="13105519351" to="13105519354" priority="1" type="highway.pedestrian" spreadType="center">
        <lane id="1425774288#2_0" index="0" allow="pedestrian" speed="2.78" length="6.54" width="2.00" shape="201.32,773.24 196.09,769.31"/>
    </edge>
    <edge id="1425774288#3" from="13105519354" to="13105519350" priority="1" type="highway.pedestrian" spreadType="center">
        <lane id="1425774288#3_0" index="0" allow="pedestrian" speed="2.78" length="32.44" width="2.00" shape="192.09,766.30 166.16,746.81"/>
    </edge>
    <edge id="1425774288#4" from="13105519350" to="6448068511" priority="1" type="highway.pedestrian" spreadType="center" shape="163.55,744.85 114.30,707.82 110.33,707.00 100.48,704.95 95.95,704.01 72.22,686.78 69.77,685.00 65.55,681.93 51.60,676.27 44.91,671.31 17.23,650.82 0.00,638.06">
        <lane id="1425774288#4_0" index="0" allow="pedestrian" speed="2.78" length="193.91" width="2.00" shape="160.92,742.87 114.30,707.82 110.33,707.00 100.48,704.95 95.95,704.01 72.22,686.78 69.77,685.00 65.55,681.93 51.60,676.27 44.91,671.31 17.23,650.82 0.00,638.06"/>
    </edge>
    <edge id="1425774289" from="13105519351" to="13105519352" priority="1" type="highway.pedestrian" spreadType="center">
        <lane id="1425774289_0" index="0" allow="pedestrian" speed="2.78" length="37.36" width="2.00" shape="202.63,777.73 198.73,814.89"/>
    </edge>
    <edge id="1425774291#1" from="13105519355" to="13105519354" priority="1" type="highway.footway" spreadType="center" shape="203.81,754.63 201.47,757.81 194.10,767.81">
        <lane id="1425774291#1_0" index="0" allow="pedestrian" speed="2.78" length="10.35" width="2.00" shape="201.73,757.45 201.47,757.81 195.59,765.79"/>
    </edge>
    <edge id="1425774292#0" from="13105503331" to="13105519353" priority="1" type="highway.pedestrian" spreadType="center">
        <lane id="1425774292#0_0" index="0" allow="pedestrian" speed="2.78" length="3.35" width="2.00" shape="211.60,744.52 209.51,747.13"/>
    </edge>
    <edge id="1425774292#1" from="13105519353" to="13105519355" priority="1" type="highway.pedestrian" spreadType="center" shape="207.29,749.89 204.95,753.08 203.81,754.63">
        <lane id="1425774292#1_0" index="0" allow="pedestrian" speed="2.78" length="0.20" width="2.00" shape="205.61,752.18 205.49,752.34"/>
    </edge>
    <edge id="150394034#0" from="1633093590" to="cluster_4565322442_4565322443" priority="17" type="railway.tram" spreadType="center" shape="400.32,918.57 382.50,905.18 371.74,897.11 366.50,893.17 360.56,888.83 350.33,881.35 342.60,875.72 338.01,873.08 332.98,872.02 328.63,872.14 324.41,872.94 320.25,874.64 316.11,877.14 313.28,879.35 308.92,883.60 306.42,886.25">
        <lane id="150394034#0_0" index="0" allow="tram" speed="2.78" length="110.88" shape="400.32,918.57 382.50,905.18 371.74,897.11 366.50,893.17 360.56,888.83 350.33,881.35 342.60,875.72 338.01,873.08 332.98,872.02 328.63,872.14 324.41,872.94 320.25,874.64 316.11,877.14 313.28,879.35 308.92,883.60 308.30,884.26"/>
    </edge>
    <edge id="150394034#1" from="cluster_4565322442_4565322443" to="11582988109" priority="17" type="railway.tram" spreadType="center" shape="306.42,886.25 269.83,926.11 265.96,930.43 248.04,950.14">
        <lane id="150394034#1_0" index="0" allow="tram" speed="2.78" length="83.46" shape="304.33,888.53 269.83,926.11 265.96,930.43 248.04,950.14"/>
    </edge>
    <edge id="169195791#0" from="863119413" to="3095536723" priority="1" type="highway.pedestrian" spreadType="center" shape="212.03,976.81 258.85,924.91 264.96,917.54">
        <lane id="169195791#0_0" index="0" allow="pedestrian" speed="2.78" length="76.94" width="2.00" shape="212.03,976.81 258.85,924.91 263.35,919.49"/>
    </edge>
    <edge id="169195791#1" from="3095536723" to="1860777042" priority="1" type="highway.pedestrian" spreadType="center">
        <lane id="169195791#1_0" index="0" allow="pedestrian" speed="2.78" length="45.30" width="2.00" shape="266.59,915.73 296.86,882.03"/>
    </edge>
    <edge id="169195791#2" from="1860777042" to="13105519347" priority="1" type="highway.pedestrian" spreadType="center">
        <lane id="169195791#2_0" index="0" allow="pedestrian" speed="2.78" length="22.07" width="2.00" shape="300.11,878.28 314.25,861.33"/>
    </edge>
    <edge id="169195791#3" from="13105519347" to="8793912191" priority="1" type="highway.pedestrian" spreadType="center">
        <lane id="169195791#3_0" index="0" allow="pedestrian" speed="2.78" length="11.04" width="2.00" shape="317.45,857.49 324.52,849.01"/>
    </edge>
    <edge id="169195791#4" from="8793912191" to="29219464" priority="1" type="highway.pedestrian" spreadType="center">
        <lane id="169195791#4_0" index="0" allow="pedestrian" speed="2.78" length="0.20" width="2.00" shape="328.07,844.53 328.19,844.37"/>
    </edge>
    <edge id="169230291#0" from="768038174" to="1860777043" priority="1" type="highway.footway" spreadType="center" shape="219.78,986.37 256.78,947.80 270.05,933.60 291.94,910.01 310.80,889.75">
        <lane id="169230291#0_0" index="0" allow="pedestrian" speed="2.78" length="130.21" width="2.00" shape="219.78,986.37 256.78,947.80 270.05,933.60 291.94,910.01 309.07,891.61"/>
    </edge>
    <edge id="169230291#1" from="1860777043" to="196763703" priority="1" type="highway.footway" spreadType="center" shape="310.80,889.75 315.47,884.74 324.84,878.44 341.20,891.79 351.62,900.79 361.36,909.21">
        <lane id="169230291#1_0" index="0" allow="pedestrian" speed="2.78" length="63.44" width="2.00" shape="312.48,887.95 315.47,884.74 324.84,878.44 341.20,891.79 351.62,900.79 361.36,909.21"/>
    </edge>
    <edge id="175499828#0" from="1860777043" to="cluster_4565322442_4565322443" priority="1" type="highway.footway" spreadType="center" shape="310.80,889.75 309.48,888.61 307.79,887.24 306.42,886.25">
        <lane id="175499828#0_0" index="0" allow="pedestrian" speed="2.78" length="0.17" width="2.00" shape="309.00,888.22 308.86,888.11"/>
    </edge>
    <edge id="175499828#4" from="cluster_4565322442_4565322443" to="1860777042" priority="1" type="highway.footway" spreadType="center" shape="303.46,884.08 302.23,883.19 300.03,881.53 298.54,880.16">
        <lane id="175499828#4_0" index="0" allow="pedestrian" speed="2.78" length="0.58" width="2.00" shape="300.88,882.17 300.42,881.82"/>
    </edge>
    <edge id="177195505" from="29495031" to="610527620" priority="18" type="railway.subway" spreadType="center" shape="331.42,217.61 341.02,316.32 345.13,355.59 348.07,370.82 356.50,414.57 360.02,456.21 359.79,477.90 357.59,497.71 351.78,523.13 348.12,533.68 345.76,540.48 344.89,542.14 331.46,567.53 316.56,592.47 300.21,618.27 294.86,627.45 291.00,638.20 289.51,644.54 288.66,656.24 289.40,665.76 291.31,676.43 294.77,687.76 298.52,696.02 305.71,706.93 320.16,721.24 337.32,734.36 401.55,775.68 428.95,792.83 452.02,805.42 478.42,818.97 487.87,825.07 497.68,832.25 501.88,836.50 505.86,841.15 511.79,850.49 517.32,862.01 520.76,871.13 522.92,884.66 522.88,894.00">
        <lane id="177195505_0" index="0" allow="subway" speed="27.78" length="810.16" shape="331.42,217.61 341.02,316.32 345.13,355.59 348.07,370.82 356.50,414.57 360.02,456.21 359.79,477.90 357.59,497.71 351.78,523.13 348.12,533.68 345.76,540.48 344.89,542.14 331.46,567.53 316.56,592.47 300.21,618.27 294.86,627.45 291.00,638.20 289.51,644.54 288.66,656.24 289.40,665.76 291.31,676.43 294.77,687.76 298.52,696.02 305.71,706.93 320.16,721.24 337.32,734.36 401.55,775.68 428.95,792.83 452.02,805.42 478.42,818.97 487.87,825.07 497.68,832.25 501.88,836.50 505.86,841.15 511.79,850.49 517.32,862.01 520.76,871.13 522.92,884.66 522.88,894.00"/>
    </edge>
    <edge id="199425790#0" from="2094266862" to="298352344" priority="18" type="railway.subway" spreadType="center" shape="112.97,693.13 212.55,765.28 237.12,783.41">
        <lane id="199425790#0_0" index="0" allow="subway" speed="19.44" length="153.28" shape="112.97,693.13 212.55,765.28 236.94,783.28"/>
    </edge>
    <edge id="199425790#1" from="298352344" to="6494918324" priority="18" type="railway.subway" spreadType="center">
        <lane id="199425790#1_0" index="0" allow="subway" speed="19.44" length="15.49" shape="238.80,784.56 251.58,793.32"/>
    </edge>
    <edge id="199425790#2" from="6494918324" to="2094266900" priority="18" type="railway.subway" spreadType="center">
        <lane id="199425790#2_0" index="0" allow="subway" speed="19.44" length="74.52" shape="253.76,794.88 313.30,839.71"/>
    </edge>
    <edge id="199425790#3" from="2094266900" to="2094267036" priority="18" type="railway.subway" spreadType="center" shape="314.46,840.58 361.96,877.43 371.76,883.49 395.86,894.97 449.36,930.34 509.61,980.19 525.22,992.46 541.22,1004.29">
        <lane id="199425790#3_0" index="0" allow="subway" speed="19.44" length="278.90" shape="315.66,841.51 361.96,877.43 371.76,883.49 395.86,894.97 449.36,930.34 509.61,980.19 525.22,992.46 541.22,1004.29"/>
    </edge>
    <edge id="199425792" from="2094266911" to="2094266900" priority="18" type="railway.subway" spreadType="center" shape="341.00,867.45 320.75,845.93 314.46,840.58">
        <lane id="199425792_0" index="0" allow="subway" speed="19.44" length="34.50" shape="339.78,866.15 320.75,845.93 315.62,841.57"/>
    </edge>
    <edge id="199425795#0" from="2094266866" to="6494918328" priority="18" type="railway.subway" spreadType="center" shape="106.48,701.16 160.12,738.70 207.75,772.62 224.62,784.54 274.74,823.22">
        <lane id="199425795#0_0" index="0" allow="subway" speed="19.44" length="206.31" shape="106.48,701.16 160.12,738.70 207.75,772.62 224.62,784.54 273.47,822.24"/>
    </edge>
    <edge id="199425795#1" from="6494918328" to="6494918329" priority="18" type="railway.subway" spreadType="center">
        <lane id="199425795#1_0" index="0" allow="subway" speed="19.44" length="28.03" shape="275.68,823.92 298.11,840.73"/>
    </edge>
    <edge id="199425795#2" from="6494918329" to="6494918326" priority="18" type="railway.subway" spreadType="center">
        <lane id="199425795#2_0" index="0" allow="subway" speed="19.44" length="19.18" shape="300.29,842.45 315.24,854.47"/>
    </edge>
    <edge id="199425795#3" from="6494918326" to="2094266965" priority="18" type="railway.subway" spreadType="center" shape="315.98,855.07 371.63,897.97 389.61,911.80">
        <lane id="199425795#3_0" index="0" allow="subway" speed="19.44" length="90.83" shape="317.66,856.36 371.63,897.97 389.61,911.80"/>
    </edge>
    <edge id="202157012" from="2121324881" to="2121324896" priority="1" type="highway.footway" spreadType="center">
        <lane id="202157012_0" index="0" allow="pedestrian" speed="2.78" length="64.84" width="2.00" shape="323.94,775.98 376.70,813.68"/>
    </edge>
    <edge id="202157028#0" from="10196188861" to="2121324881" priority="1" type="highway.footway" spreadType="center" shape="294.21,815.22 298.53,808.85 321.89,774.51">
        <lane id="202157028#0_0" index="0" allow="pedestrian" speed="2.78" length="43.13" width="2.00" shape="296.21,812.26 298.53,808.85 320.47,776.60"/>
    </edge>
    <edge id="202157028#1" from="2121324881" to="3151820959" priority="1" type="highway.footway" spreadType="center" shape="321.89,774.51 311.76,766.22 341.05,728.21">
        <lane id="202157028#1_0" index="0" allow="pedestrian" speed="2.78" length="58.66" width="2.00" shape="320.02,772.98 311.76,766.22 341.05,728.21"/>
    </edge>
    <edge id="272757347" from="2776837207" to="2776837159" priority="1" type="highway.footway" spreadType="center" shape="331.26,912.35 334.67,908.97 330.88,902.56 326.65,899.99 319.00,902.71">
        <lane id="272757347_0" index="0" allow="pedestrian" speed="2.78" length="25.32" width="2.00" shape="331.26,912.35 334.67,908.97 330.88,902.56 326.65,899.99 319.00,902.71"/>
    </edge>
    <edge id="272757350#0" from="2776837301" to="2776837148" priority="1" type="highway.footway" spreadType="center" shape="295.26,912.64 309.02,912.94 324.47,897.06 327.55,895.97">
        <lane id="272757350#0_0" index="0" allow="pedestrian" speed="2.78" length="37.35" width="2.00" shape="295.26,912.64 309.02,912.94 324.47,897.06 325.82,896.58"/>
    </edge>
    <edge id="272757350#1" from="2776837148" to="2776837147" priority="1" type="highway.footway" spreadType="center" shape="327.55,895.97 331.73,895.46 337.63,895.50">
        <lane id="272757350#1_0" index="0" allow="pedestrian" speed="2.78" length="6.43" width="2.00" shape="331.20,895.52 331.73,895.46 337.63,895.50"/>
    </edge>
    <edge id="304987178#0" from="3095536667" to="3182529386" priority="1" type="highway.pedestrian" spreadType="center">
        <lane id="304987178#0_0" index="0" allow="pedestrian" speed="2.78" length="55.67" width="2.00" shape="172.76,845.72 216.72,879.87"/>
    </edge>
    <edge id="304987178#1" from="3182529386" to="3095536723" priority="1" type="highway.pedestrian" spreadType="center">
        <lane id="304987178#1_0" index="0" allow="pedestrian" speed="2.78" length="53.22" width="2.00" shape="221.03,883.23 262.97,915.98"/>
    </edge>
    <edge id="312357351#0" from="2121324871" to="262468768" priority="12" type="highway.primary" spreadType="center" shape="353.73,724.79 346.50,719.60 305.17,687.18 276.11,666.91 270.17,662.76 268.46,661.56 265.15,659.01 255.79,651.76 213.52,619.92">
        <lane id="312357351#0_0" index="0" disallow="pedestrian tram rail_urban rail rail_electric rail_fast ship container cable_car subway aircraft wheelchair scooter drone" speed="13.89" length="175.13" shape="351.86,727.39 344.58,722.16 303.27,689.75 274.28,669.53 268.34,665.38 266.56,664.14 263.19,661.54 253.85,654.30 211.59,622.48"/>