<?xml version="1.0" encoding="UTF-8"?>

<!-- generated on 2025-11-17T19:25:27.257719-03:00 by Eclipse SUMO netconvert 1.25.0
<netconvertConfiguration xmlns:xsi="http://www.w3.org/2001/XMLSchema-instance" xsi:noNamespaceSchemaLocation="http://sumo.dlr.de/xsd/netconvertConfiguration.xsd">

    <input>
        <osm-files value="research_maps/osm_files/urban_dense.osm"/>
    </input>

    <output>
        <output-file value="research_maps/sumo_xml/urban_dense.net.xml"/>
    </output>

    <projection>
        <proj.utm value="true"/>
    </projection>

    <processing>
        <geometry.remove value="true"/>
        <offset.disable-normalization value="true"/>
        <roundabouts.guess value="true"/>
    </processing>

    <tls_building>
        <tls.discard-simple value="true"/>
        <tls.join value="true"/>
        <tls.guess-signals value="true"/>
    </tls_building>

    <ramp_guessing>
        <ramps.guess value="true"/>
    </ramp_guessing>

    <edge_removal>
        <keep-edges.by-vclass value="passenger"/>
        <remove-edges.by-vclass value="pedestrian,bicycle"/>
    </edge_removal>

    <junctions>
        <junctions.join value="true"/>
        <junctions.join-dist value="15.0"/>
    </junctions>

    <report>
        <verbose value="true"/>
    </report>

</netconvertConfiguration>
-->

<net version="1.20" junctionCornerDetail="5" limitTurnSpeed="5.50" xmlns:xsi="http://www.w3.org/2001/XMLSchema-instance" xsi:noNamespaceSchemaLocation="http://sumo.dlr.de/xsd/net_file.xsd">

    <location netOffset="0.00,0.00" convBoundary="391776.54,5819732.38,393113.77,5820994.71" origBoundary="13.386531,52.511490,13.445870,52.532144" projParameter="+proj=utm +zone=33 +ellps=WGS84 +datum=WGS84 +units=m +no_defs"/>

    <type id="highway.living_street" priority="2" numLanes="1" speed="2.78" disallow="tram rail_urban rail rail_electric rail_fast ship container cable_car subway aircraft wheelchair scooter drone" oneway="0"/>
    <type id="highway.primary" priority="12" numLanes="2" speed="27.78" disallow="tram rail_urban rail rail_electric rail_fast ship container cable_car subway aircraft wheelchair scooter drone" oneway="0"/>
    <type id="highway.residential" priority="3" numLanes="1" speed="13.89" disallow="tram rail_urban rail rail_electric rail_fast ship container cable_car subway aircraft wheelchair scooter drone" oneway="0"/>
    <type id="highway.secondary" priority="11" numLanes="1" speed="27.78" disallow="tram rail_urban rail rail_electric rail_fast ship container cable_car subway aircraft wheelchair scooter drone" oneway="0"/>
    <type id="highway.tertiary" priority="10" numLanes="1" speed="22.22" disallow="tram rail_urban rail rail_electric rail_fast ship container cable_car subway aircraft wheelchair scooter drone" oneway="0"/>

    <edge id=":10189126628_0" function="internal">
        <lane id=":10189126628_0_0" index="0" disallow="pedestrian tram rail_urban rail rail_electric rail_fast ship container cable_car subway aircraft wheelchair scooter drone" speed="3.53" length="4.38" width="3.00" shape="393027.80,5819916.53 393027.66,5819917.87 393027.17,5819918.56 393026.33,5819918.58 393025.14,5819917.93"/>
    </edge>
    <edge id=":10201971104_0" function="internal">
        <lane id=":10201971104_0_0" index="0" disallow="pedestrian tram rail_urban rail rail_electric rail_fast ship container cable_car subway aircraft wheelchair scooter drone" speed="8.33" length="8.42" shape="392130.72,5820570.50 392129.18,5820568.50 392127.51,5820567.59 392125.85,5820566.68 392124.35,5820564.66"/>
        <lane id=":10201971104_0_1" index="1" disallow="pedestrian tram rail_urban rail rail_electric rail_fast ship container cable_car subway aircraft wheelchair scooter drone" speed="8.33" length="8.42" shape="392130.72,5820570.50 392127.25,5820563.29"/>
    </edge>
    <edge id=":10201971104_2" function="internal">
        <lane id=":10201971104_2_0" index="0" disallow="pedestrian tram rail_urban rail rail_electric rail_fast ship container cable_car subway aircraft wheelchair scooter drone" speed="8.33" length="7.96" shape="392130.14,5820561.92 392133.59,5820569.09"/>
    </edge>
    <edge id=":10221724990_0" function="internal">
        <lane id=":10221724990_0_0" index="0" disallow="tram rail_urban rail rail_electric rail_fast ship container cable_car subway aircraft wheelchair scooter drone" speed="3.53" length="4.38" width="3.00" shape="393016.17,5820683.65 393017.49,5820683.35 393018.29,5820683.59 393018.58,5820684.38 393018.35,5820685.71"/>
    </edge>
    <edge id=":10570137364_0" function="internal">
        <lane id=":10570137364_0_0" index="0" disallow="pedestrian tram rail_urban rail rail_electric rail_fast ship container cable_car subway aircraft wheelchair scooter drone" speed="3.65" length="4.67" shape="392175.41,5820957.03 392173.98,5820956.87 392173.26,5820956.34 392173.25,5820955.45 392173.95,5820954.19"/>
    </edge>
    <edge id=":10570139742_0" function="internal">
        <lane id=":10570139742_0_0" index="0" disallow="pedestrian tram rail_urban rail rail_electric rail_fast ship container cable_car subway aircraft wheelchair scooter drone" speed="4.89" length="8.40" width="5.75" shape="392260.90,5820963.93 392260.85,5820966.52 392260.03,5820967.90 392258.43,5820968.07 392256.06,5820967.03"/>
    </edge>
    <edge id=":10570544138_0" function="internal">
        <lane id=":10570544138_0_0" index="0" disallow="tram rail_urban rail rail_electric rail_fast ship container cable_car subway aircraft wheelchair scooter drone" speed="3.53" length="4.38" width="3.00" shape="392958.47,5820172.51 392959.81,5820172.69 392960.48,5820173.20 392960.47,5820174.03 392959.79,5820175.21"/>
    </edge>
    <edge id=":10648227581_0" function="internal">
        <lane id=":10648227581_0_0" index="0" disallow="pedestrian tram rail_urban rail rail_electric rail_fast ship container cable_car subway aircraft wheelchair scooter drone" speed="8.33" length="14.25" width="4.50" shape="392210.99,5820749.01 392211.73,5820745.43 392211.94,5820741.92 392211.51,5820738.48 392210.32,5820735.07"/>
    </edge>
    <edge id=":10648227581_1" function="internal">
        <lane id=":10648227581_1_0" index="0" disallow="pedestrian tram rail_urban rail rail_electric rail_fast ship container cable_car subway aircraft wheelchair scooter drone" speed="8.33" length="6.45" shape="392210.99,5820749.01 392213.00,5820743.63 392213.44,5820743.08"/>
    </edge>
    <edge id=":10648227581_2" function="internal">
        <lane id=":10648227581_2_0" index="0" disallow="pedestrian tram rail_urban rail rail_electric rail_fast ship container cable_car subway aircraft wheelchair scooter drone" speed="4.40" length="2.91" width="4.50" shape="392210.99,5820749.01 392212.08,5820747.18 392212.76,5820746.80"/>
    </edge>
    <edge id=":10648227581_9" function="internal">
        <lane id=":10648227581_9_0" index="0" disallow="pedestrian tram rail_urban rail rail_electric rail_fast ship container cable_car subway aircraft wheelchair scooter drone" speed="8.33" length="10.89" shape="392213.44,5820743.08 392215.62,5820740.35 392218.85,5820739.18 392222.70,5820740.12"/>
    </edge>
    <edge id=":10648227581_10" function="internal">
        <lane id=":10648227581_10_0" index="0" disallow="pedestrian tram rail_urban rail rail_electric rail_fast ship container cable_car subway aircraft wheelchair scooter drone" speed="4.40" length="3.99" width="4.50" shape="392212.76,5820746.80 392213.23,5820746.53 392214.44,5820747.06 392215.71,5820748.77"/>
    </edge>
    <edge id=":10648227581_3" function="internal">
        <lane id=":10648227581_3_0" index="0" disallow="pedestrian tram rail_urban rail rail_electric rail_fast ship container cable_car subway aircraft wheelchair scooter drone" speed="6.45" length="10.13" width="4.50" shape="392222.56,5820743.60 392220.31,5820743.05 392218.41,5820743.73 392216.88,5820745.63 392215.71,5820748.77"/>
    </edge>
    <edge id=":10648227581_4" function="internal">
        <lane id=":10648227581_4_0" index="0" disallow="pedestrian tram rail_urban rail rail_electric rail_fast ship container cable_car subway aircraft wheelchair scooter drone" speed="8.33" length="15.21" width="4.50" shape="392222.56,5820743.60 392219.05,5820741.99 392215.55,5820740.22 392212.50,5820738.01 392210.32,5820735.07"/>
    </edge>
    <edge id=":10648227581_5" function="internal">
        <lane id=":10648227581_5_0" index="0" disallow="pedestrian tram rail_urban rail rail_electric rail_fast ship container cable_car subway aircraft wheelchair scooter drone" speed="3.76" length="5.09" shape="392222.56,5820743.60 392221.29,5820742.68 392220.89,5820741.79 392221.36,5820740.94 392222.70,5820740.12"/>
    </edge>
    <edge id=":10648227581_6" function="internal">
        <lane id=":10648227581_6_0" index="0" disallow="pedestrian tram rail_urban rail rail_electric rail_fast ship container cable_car subway aircraft wheelchair scooter drone" speed="8.33" length="9.66" shape="392215.12,5820734.71 392216.56,5820737.04 392218.08,5820738.23 392220.02,5820739.01 392222.70,5820740.12"/>
    </edge>
    <edge id=":10648227581_7" function="internal">
        <lane id=":10648227581_7_0" index="0" disallow="pedestrian tram rail_urban rail rail_electric rail_fast ship container cable_car subway aircraft wheelchair scooter drone" speed="8.33" length="14.37" width="4.50" shape="392215.12,5820734.71 392216.30,5820738.13 392216.70,5820741.62 392216.46,5820745.17 392215.71,5820748.77"/>
    </edge>
    <edge id=":10648227581_8" function="internal">
        <lane id=":10648227581_8_0" index="0" disallow="pedestrian tram rail_urban rail rail_electric rail_fast ship container cable_car subway aircraft wheelchair scooter drone" speed="4.43" length="2.30" width="4.50" shape="392215.12,5820734.71 392214.06,5820736.60 392213.95,5820736.67"/>
    </edge>
    <edge id=":10648227581_11" function="internal">
        <lane id=":10648227581_11_0" index="0" disallow="pedestrian tram rail_urban rail rail_electric rail_fast ship container cable_car subway aircraft wheelchair scooter drone" speed="4.43" length="4.73" width="4.50" shape="392213.95,5820736.67 392212.90,5820737.29 392211.66,5820736.78 392210.32,5820735.07"/>
    </edge>
    <edge id=":10648314047_0" function="internal">
        <lane id=":10648314047_0_0" index="0" disallow="pedestrian tram rail_urban rail rail_electric rail_fast ship container cable_car subway aircraft wheelchair scooter drone" speed="3.65" length="4.67" shape="392456.60,5820807.42 392458.04,5820807.57 392458.77,5820808.09 392458.78,5820808.99 392458.10,5820810.26"/>
    </edge>
    <edge id=":10653079244_0" function="internal">
        <lane id=":10653079244_0_0" index="0" disallow="tram rail_urban rail rail_electric rail_fast ship container cable_car subway aircraft wheelchair scooter drone" speed="3.53" length="4.38" width="3.00" shape="393016.74,5820710.03 393017.05,5820711.35 393016.82,5820712.15 393016.03,5820712.45 393014.70,5820712.23"/>
    </edge>
    <edge id=":10720914772_0" function="internal">
        <lane id=":10720914772_0_0" index="0" disallow="tram rail_urban rail rail_electric rail_fast ship container cable_car subway aircraft wheelchair scooter drone" speed="8.33" length="3.33" width="3.50" shape="392708.32,5820787.93 392707.96,5820787.05 392707.99,5820786.33 392708.03,5820785.62 392707.67,5820784.74"/>
    </edge>
    <edge id=":10720914772_1" function="internal">
        <lane id=":10720914772_1_0" index="0" disallow="tram rail_urban rail rail_electric rail_fast ship container cable_car subway aircraft wheelchair scooter drone" speed="8.33" length="3.33" width="6.00" shape="392710.57,5820782.78 392711.25,5820783.43 392711.93,5820783.67 392712.60,5820783.90 392713.28,5820784.56"/>
    </edge>
    <edge id=":10760477361_0" function="internal">
        <lane id=":10760477361_0_0" index="0" disallow="pedestrian tram rail_urban rail rail_electric rail_fast ship container cable_car subway aircraft wheelchair scooter drone" speed="8.33" length="3.03" shape="392183.48,5820678.90 392183.14,5820678.07 392182.99,5820677.46 392182.85,5820676.86 392182.51,5820676.03"/>
    </edge>
    <edge id=":10760477361_1" function="internal">
        <lane id=":10760477361_1_0" index="0" disallow="pedestrian tram rail_urban rail rail_electric rail_fast ship container cable_car subway aircraft wheelchair scooter drone" speed="8.33" length="3.04" width="4.00" shape="392185.39,5820674.62 392185.84,5820675.39 392186.23,5820675.88 392186.62,5820676.36 392187.07,5820677.14"/>
    </edge>
    <edge id=":10923644010_0" function="internal">
        <lane id=":10923644010_0_0" index="0" disallow="pedestrian tram rail_urban rail rail_electric rail_fast ship container cable_car subway aircraft wheelchair scooter drone" speed="6.81" length="9.42" shape="392205.40,5819920.81 392204.27,5819923.21 392204.09,5819925.40 392204.85,5819927.37 392206.56,5819929.13"/>
    </edge>
    <edge id=":10923644010_1" function="internal">
        <lane id=":10923644010_1_0" index="0" disallow="tram rail_urban rail rail_electric rail_fast ship container cable_car subway aircraft wheelchair scooter drone" speed="3.65" length="4.67" shape="392205.40,5819920.81 392204.08,5819921.39 392203.19,5819921.30 392202.73,5819920.53 392202.71,5819919.08"/>
    </edge>
    <edge id=":10923644010_2" function="internal">
        <lane id=":10923644010_2_0" index="0" disallow="pedestrian tram rail_urban rail rail_electric rail_fast ship container cable_car subway aircraft wheelchair scooter drone" speed="6.30" length="9.08" shape="392195.07,5819920.44 392197.22,5819921.70 392199.21,5819921.90 392201.04,5819921.03 392202.71,5819919.08"/>
    </edge>
    <edge id=":10923644010_3" function="internal">
        <lane id=":10923644010_3_0" index="0" disallow="pedestrian tram rail_urban rail rail_electric rail_fast ship container cable_car subway aircraft wheelchair scooter drone" speed="13.89" length="14.40" shape="392195.07,5819920.44 392206.56,5819929.13"/>
        <lane id=":10923644010_3_1" index="1" disallow="pedestrian tram rail_urban rail rail_electric rail_fast ship container cable_car subway aircraft wheelchair scooter drone" speed="13.89" length="14.40" shape="392193.15,5819923.00 392204.63,5819931.68"/>
    </edge>
    <edge id=":10957988719_0" function="internal">
        <lane id=":10957988719_0_0" index="0" disallow="pedestrian tram rail_urban rail rail_electric rail_fast ship container cable_car subway aircraft wheelchair scooter drone" speed="3.65" length="4.67" shape="391979.40,5820578.22 391977.96,5820578.22 391977.18,5820577.78 391977.07,5820576.89 391977.62,5820575.56"/>
    </edge>
    <edge id=":11021344237_0" function="internal">
        <lane id=":11021344237_0_0" index="0" disallow="tram rail_urban rail rail_electric rail_fast ship container cable_car subway aircraft wheelchair scooter drone" speed="3.65" length="4.67" shape="392618.90,5819819.22 392618.22,5819817.95 392618.25,5819817.05 392618.98,5819816.54 392620.42,5819816.40"/>
    </edge>
    <edge id=":11771933401_0" function="internal">
        <lane id=":11771933401_0_0" index="0" disallow="pedestrian tram rail_urban rail rail_electric rail_fast ship container cable_car subway aircraft wheelchair scooter drone" speed="6.64" length="9.42" shape="392272.59,5819978.62 392274.78,5819979.77 392276.86,5819979.90 392278.84,5819979.00 392280.72,5819977.08"/>
    </edge>
    <edge id=":11771933401_1" function="internal">
        <lane id=":11771933401_1_0" index="0" disallow="pedestrian tram rail_urban rail rail_electric rail_fast ship container cable_car subway aircraft wheelchair scooter drone" speed="13.89" length="11.71" shape="392272.59,5819978.62 392275.30,5819980.57 392277.27,5819981.75 392279.38,5819982.68 392282.50,5819983.89"/>
        <lane id=":11771933401_1_1" index="1" disallow="pedestrian tram rail_urban rail rail_electric rail_fast ship container cable_car subway aircraft wheelchair scooter drone" speed="13.89" length="11.71" shape="392270.68,5819981.19 392273.60,5819983.29 392275.72,5819984.56 392277.98,5819985.57 392281.34,5819986.87"/>
    </edge>
    <edge id=":12035159941_0" function="internal">
        <lane id=":12035159941_0_0" index="0" disallow="tram rail_urban rail rail_electric rail_fast ship container cable_car subway aircraft wheelchair scooter drone" speed="8.33" length="5.58" shape="392306.08,5819953.18 392305.01,5819954.45 392304.28,5819955.34 392303.72,5819956.32 392303.15,5819957.86"/>
    </edge>
    <edge id=":12035159941_1" function="internal">
        <lane id=":12035159941_1_0" index="0" disallow="tram rail_urban rail rail_electric rail_fast ship container cable_car subway aircraft wheelchair scooter drone" speed="3.65" length="4.67" shape="392306.08,5819953.18 392304.71,5819953.62 392303.83,5819953.42 392303.46,5819952.61 392303.59,5819951.17"/>
    </edge>
    <edge id=":12035159941_2" function="internal">
        <lane id=":12035159941_2_0" index="0" disallow="tram rail_urban rail rail_electric rail_fast ship container cable_car subway aircraft wheelchair scooter drone" speed="8.21" length="3.92" shape="392300.42,5819953.30 392301.52,5819952.94 392302.24,5819952.59 392302.85,5819952.06 392303.59,5819951.17"/>
    </edge>
    <edge id=":12035159941_3" function="internal">
        <lane id=":12035159941_3_0" index="0" disallow="tram rail_urban rail rail_electric rail_fast ship container cable_car subway aircraft wheelchair scooter drone" speed="5.07" length="7.39" shape="392300.42,5819953.30 392302.32,5819953.07 392303.41,5819953.75 392303.69,5819955.35 392303.15,5819957.86"/>
    </edge>
    <edge id=":12437498283_0" function="internal">
        <lane id=":12437498283_0_0" index="0" disallow="tram rail_urban rail rail_electric rail_fast ship container cable_car subway aircraft wheelchair scooter drone" speed="4.56" length="7.30" width="5.00" shape="392552.94,5820440.92 392552.75,5820438.67 392553.34,5820437.40 392554.71,5820437.11 392556.86,5820437.80"/>
    </edge>
    <edge id=":1261425423_0" function="internal">
        <lane id=":1261425423_0_0" index="0" disallow="pedestrian tram rail_urban rail rail_electric rail_fast ship container cable_car subway aircraft wheelchair scooter drone" speed="8.33" length="14.42" width="3.05" shape="392512.25,5820663.46 392500.74,5820672.15"/>
    </edge>
    <edge id=":1261425423_1" function="internal">
        <lane id=":1261425423_1_0" index="0" disallow="pedestrian tram rail_urban rail rail_electric rail_fast ship container cable_car subway aircraft wheelchair scooter drone" speed="7.93" length="14.04" shape="392512.25,5820663.46 392508.85,5820665.36 392505.69,5820665.74 392502.76,5820664.59 392500.06,5820661.90"/>
    </edge>
    <edge id=":1261425423_2" function="internal">
        <lane id=":1261425423_2_0" index="0" disallow="pedestrian tram rail_urban rail rail_electric rail_fast ship container cable_car subway aircraft wheelchair scooter drone" speed="3.56" length="4.45" width="3.05" shape="392512.25,5820663.46 392510.88,5820663.54 392510.12,5820663.16 392509.96,5820662.33 392510.41,5820661.03"/>
    </edge>
    <edge id=":1261425423_3" function="internal">
        <lane id=":1261425423_3_0" index="0" disallow="pedestrian tram rail_urban rail rail_electric rail_fast ship container cable_car subway aircraft wheelchair scooter drone" speed="6.47" length="8.97" width="3.05" shape="392502.63,5820659.99 392504.36,5820661.71 392506.23,5820662.46 392508.25,5820662.23 392510.41,5820661.03"/>
    </edge>
    <edge id=":1261425423_4" function="internal">
        <lane id=":1261425423_4_0" index="0" disallow="pedestrian tram rail_urban rail rail_electric rail_fast ship container cable_car subway aircraft wheelchair scooter drone" speed="7.96" length="14.03" width="3.05" shape="392502.63,5820659.99 392504.44,5820663.33 392504.73,5820666.47 392503.50,5820669.41 392500.74,5820672.15"/>
    </edge>
    <edge id=":1261425423_5" function="internal">
        <lane id=":1261425423_5_0" index="0" disallow="pedestrian tram rail_urban rail rail_electric rail_fast ship container cable_car subway aircraft wheelchair scooter drone" speed="3.65" length="4.67" shape="392502.63,5820659.99 392502.70,5820661.43 392502.30,5820662.23 392501.42,5820662.38 392500.06,5820661.90"/>
    </edge>
    <edge id=":1261425423_6" function="internal">
        <lane id=":1261425423_6_0" index="0" disallow="pedestrian tram rail_urban rail rail_electric rail_fast ship container cable_car subway aircraft wheelchair scooter drone" speed="6.48" length="9.00" shape="392498.91,5820669.71 392500.66,5820667.96 392501.44,5820666.08 392501.24,5820664.06 392500.06,5820661.90"/>
    </edge>
    <edge id=":1261425423_7" function="internal">
        <lane id=":1261425423_7_0" index="0" disallow="pedestrian tram rail_urban rail rail_electric rail_fast ship container cable_car subway aircraft wheelchair scooter drone" speed="8.33" length="14.41" width="3.05" shape="392498.91,5820669.71 392510.41,5820661.03"/>
    </edge>
    <edge id=":1261425423_8" function="internal">
        <lane id=":1261425423_8_0" index="0" disallow="pedestrian tram rail_urban rail rail_electric rail_fast ship container cable_car subway aircraft wheelchair scooter drone" speed="3.56" length="4.45" width="3.05" shape="392498.91,5820669.71 392500.28,5820669.63 392501.05,5820670.01 392501.20,5820670.85 392500.74,5820672.15"/>
    </edge>
    <edge id=":1261425427_0" function="internal">
        <lane id=":1261425427_0_0" index="0" disallow="pedestrian tram rail_urban rail rail_electric rail_fast ship container cable_car subway aircraft wheelchair scooter drone" speed="6.51" length="9.03" shape="392439.32,5820581.00 392437.56,5820579.25 392435.67,5820578.49 392433.64,5820578.70 392431.47,5820579.90"/>
    </edge>
    <edge id=":1261425427_1" function="internal">
        <lane id=":1261425427_1_0" index="0" disallow="pedestrian tram rail_urban rail rail_electric rail_fast ship container cable_car subway aircraft wheelchair scooter drone" speed="3.65" length="4.67" shape="392439.32,5820581.00 392439.23,5820579.56 392439.63,5820578.76 392440.51,5820578.59 392441.87,5820579.07"/>
    </edge>
    <edge id=":1261425427_2" function="internal">
        <lane id=":1261425427_2_0" index="0" disallow="pedestrian tram rail_urban rail rail_electric rail_fast ship container cable_car subway aircraft wheelchair scooter drone" speed="8.33" length="11.90" shape="392436.13,5820568.67 392437.85,5820571.44 392438.98,5820573.89 392440.12,5820576.33 392441.87,5820579.07"/>
    </edge>
    <edge id=":1261425427_3" function="internal">
        <lane id=":1261425427_3_0" index="0" disallow="tram rail_urban rail rail_electric rail_fast ship container cable_car subway aircraft wheelchair scooter drone" speed="7.88" length="13.57" shape="392436.13,5820568.67 392437.20,5820571.24 392436.78,5820573.97 392434.87,5820576.85 392431.47,5820579.90"/>
    </edge>
    <edge id=":1275477851_0" function="internal">
        <lane id=":1275477851_0_0" index="0" disallow="pedestrian tram rail_urban rail rail_electric rail_fast ship container cable_car subway aircraft wheelchair scooter drone" speed="11.11" length="2.94" shape="392267.47,5820653.45 392266.15,5820650.83"/>
    </edge>
    <edge id=":1275477851_1" function="internal">
        <lane id=":1275477851_1_0" index="0" disallow="pedestrian tram rail_urban rail rail_electric rail_fast ship container cable_car subway aircraft wheelchair scooter drone" speed="11.11" length="3.01" width="3.00" shape="392269.03,5820649.45 392270.21,5820652.22"/>
    </edge>
    <edge id=":1275477860_0" function="internal">
        <lane id=":1275477860_0_0" index="0" disallow="tram rail_urban rail rail_electric rail_fast ship container cable_car subway aircraft wheelchair scooter drone" speed="3.65" length="4.67" shape="392204.00,5820542.92 392203.92,5820541.48 392204.31,5820540.67 392205.19,5820540.51 392206.56,5820540.98"/>
    </edge>
    <edge id=":12919580025_0" function="internal">
        <lane id=":12919580025_0_0" index="0" disallow="pedestrian tram rail_urban rail rail_electric rail_fast ship container cable_car subway aircraft wheelchair scooter drone" speed="5.06" length="8.98" width="6.15" shape="391959.82,5819920.38 391958.91,5819917.76 391959.23,5819916.07 391960.78,5819915.31 391963.54,5819915.48"/>
    </edge>
    <edge id=":13105940449_0" function="internal">
        <lane id=":13105940449_0_0" index="0" disallow="tram rail_urban rail rail_electric rail_fast ship container cable_car subway aircraft wheelchair scooter drone" speed="2.78" length="7.30" width="5.00" shape="392345.94,5820110.99 392343.85,5820111.83 392342.46,5820111.65 392341.78,5820110.43 392341.80,5820108.17"/>
    </edge>
    <edge id=":13105940452_0" function="internal">
        <lane id=":13105940452_0_0" index="0" disallow="pedestrian tram rail_urban rail rail_electric rail_fast ship container cable_car subway aircraft wheelchair scooter drone" speed="3.65" length="4.67" shape="392213.75,5820266.40 392215.15,5820266.08 392216.01,5820266.34 392216.32,5820267.18 392216.07,5820268.60"/>
    </edge>
    <edge id=":1566942175_0" function="internal">
        <lane id=":1566942175_0_0" index="0" disallow="pedestrian tram rail_urban rail rail_electric rail_fast ship container cable_car subway aircraft wheelchair scooter drone" speed="8.33" length="3.10" width="3.05" shape="392585.18,5820609.67 392584.40,5820610.13 392583.78,5820610.30 392583.16,5820610.47 392582.37,5820610.93"/>
    </edge>
    <edge id=":1566942175_1" function="internal">
        <lane id=":1566942175_1_0" index="0" disallow="pedestrian tram rail_urban rail rail_electric rail_fast ship container cable_car subway aircraft wheelchair scooter drone" speed="8.33" length="3.10" width="4.40" shape="392580.55,5820608.49 392581.20,5820607.86 392581.54,5820607.32 392581.88,5820606.77 392582.54,5820606.15"/>
    </edge>
    <edge id=":1630500695_0" function="internal">
        <lane id=":1630500695_0_0" index="0" disallow="pedestrian tram rail_urban rail rail_electric rail_fast ship container cable_car subway aircraft wheelchair scooter drone" speed="6.79" length="9.39" shape="392105.12,5820358.17 392103.02,5820356.88 392100.93,5820356.56 392098.85,5820357.22 392096.78,5820358.85"/>
    </edge>
    <edge id=":1630500695_1" function="internal">
        <lane id=":1630500695_1_0" index="0" disallow="pedestrian tram rail_urban rail rail_electric rail_fast ship container cable_car subway aircraft wheelchair scooter drone" speed="13.89" length="14.36" shape="392105.12,5820358.17 392094.13,5820348.87"/>
        <lane id=":1630500695_1_1" index="1" disallow="pedestrian tram rail_urban rail rail_electric rail_fast ship container cable_car subway aircraft wheelchair scooter drone" speed="13.89" length="14.36" shape="392107.19,5820355.73 392096.23,5820346.45"/>
        <lane id=":1630500695_1_2" index="2" disallow="pedestrian tram rail_urban rail rail_electric rail_fast ship container cable_car subway aircraft wheelchair scooter drone" speed="13.89" length="14.36" shape="392109.26,5820353.29 392098.33,5820344.02"/>
    </edge>
    <edge id=":1630500695_4" function="internal">
        <lane id=":1630500695_4_0" index="0" disallow="pedestrian tram rail_urban rail rail_electric rail_fast ship container cable_car subway aircraft wheelchair scooter drone" speed="6.30" length="9.06" shape="392094.50,5820356.60 392096.01,5820354.55 392096.46,5820352.57 392095.83,5820350.68 392094.13,5820348.87"/>
    </edge>
    <edge id=":1630500695_5" function="internal">
        <lane id=":1630500695_5_0" index="0" disallow="pedestrian tram rail_urban rail rail_electric rail_fast ship container cable_car subway aircraft wheelchair scooter drone" speed="3.65" length="4.67" shape="392094.50,5820356.60 392095.91,5820356.31 392096.76,5820356.59 392097.05,5820357.43 392096.78,5820358.85"/>
    </edge>
    <edge id=":1631101155_0" function="internal">
        <lane id=":1631101155_0_0" index="0" disallow="pedestrian tram rail_urban rail rail_electric rail_fast ship container cable_car subway aircraft wheelchair scooter drone" speed="8.33" length="3.52" shape="392665.08,5820548.23 392664.44,5820548.97 392664.29,5820549.73 392664.13,5820550.50 392663.49,5820551.23"/>
    </edge>
    <edge id=":1631101155_1" function="internal">
        <lane id=":1631101155_1_0" index="0" disallow="pedestrian tram rail_urban rail rail_electric rail_fast ship container cable_car subway aircraft wheelchair scooter drone" speed="3.65" length="4.67" shape="392661.70,5820548.58 392663.15,5820548.57 392663.92,5820549.01 392664.04,5820549.90 392663.49,5820551.23"/>
    </edge>
    <edge id=":1661927348_0" function="internal">
        <lane id=":1661927348_0_0" index="0" disallow="pedestrian tram rail_urban rail rail_electric rail_fast ship container cable_car subway aircraft wheelchair scooter drone" speed="5.00" length="8.76" width="6.00" shape="392078.47,5820985.98 392078.18,5820988.67 392077.20,5820990.03 392075.52,5820990.06 392073.15,5820988.76"/>
    </edge>
    <edge id=":1840382350_0" function="internal">
        <lane id=":1840382350_0_0" index="0" disallow="pedestrian tram rail_urban rail rail_electric rail_fast ship container cable_car subway aircraft wheelchair scooter drone" speed="6.42" length="8.94" shape="392452.41,5820708.39 392450.68,5820710.12 392449.93,5820711.99 392450.17,5820713.99 392451.39,5820716.13"/>
    </edge>
    <edge id=":1840382350_1" function="internal">
        <lane id=":1840382350_1_0" index="0" disallow="pedestrian tram rail_urban rail rail_electric rail_fast ship container cable_car subway aircraft wheelchair scooter drone" speed="3.57" length="4.46" width="3.05" shape="392452.41,5820708.39 392451.04,5820708.54 392450.25,5820708.20 392450.06,5820707.37 392450.45,5820706.05"/>
    </edge>
    <edge id=":1840382350_2" function="internal">