<?xml version="1.0" encoding="UTF-8"?>

<!-- generated on 2025-11-17T19:25:37.042020-03:00 by Eclipse SUMO netconvert 1.25.0
<netconvertConfiguration xmlns:xsi="http://www.w3.org/2001/XMLSchema-instance" xsi:noNamespaceSchemaLocation="http://sumo.dlr.de/xsd/netconvertConfiguration.xsd">

    <input>
        <osm-files value="research_maps/osm_files/urban_grid.osm"/>
    </input>

    <output>
        <output-file value="research_maps/sumo_xml/urban_grid.net.xml"/>
    </output>

    <projection>
        <proj.utm value="true"/>
    </projection>

    <processing>
        <geometry.remove value="true"/>
        <offset.disable-normalization value="true"/>
        <roundabouts.guess value="true"/>
    </processing>

    <tls_building>
        <tls.discard-simple value="true"/>
        <tls.join value="true"/>
        <tls.guess-signals value="true"/>
    </tls_building>

    <ramp_guessing>
        <ramps.guess value="true"/>
    </ramp_guessing>

    <edge_removal>
        <keep-edges.by-vclass value="passenger"/>
        <remove-edges.by-vclass value="pedestrian,bicycle"/>
    </edge_removal>

    <junctions>
        <junctions.join value="true"/>
        <junctions.join-dist value="15.0"/>
    </junctions>

    <report>
        <verbose value="true"/>
    </report>

</netconvertConfiguration>
-->

<net version="1.20" junctionCornerDetail="5" limitTurnSpeed="5.50" xmlns:xsi="http://www.w3.org/2001/XMLSchema-instance" xsi:noNamespaceSchemaLocation="http://sumo.dlr.de/xsd/net_file.xsd">

    <location netOffset="0.00,0.00" convBoundary="386174.21,5818648.08,387897.71,5819921.54" origBoundary="13.317309,52.497624,13.391748,52.522745" projParameter="+proj=utm +zone=33 +ellps=WGS84 +datum=WGS84 +units=m +no_defs"/>

    <type id="highway.primary" priority="12" numLanes="2" speed="27.78" disallow="tram rail_urban rail rail_electric rail_fast ship container cable_car subway aircraft wheelchair scooter drone" oneway="0"/>
    <type id="highway.residential" priority="3" numLanes="1" speed="13.89" disallow="tram rail_urban rail rail_electric rail_fast ship container cable_car subway aircraft wheelchair scooter drone" oneway="0"/>
    <type id="highway.secondary" priority="11" numLanes="1" speed="27.78" disallow="tram rail_urban rail rail_electric rail_fast ship container cable_car subway aircraft wheelchair scooter drone" oneway="0"/>
    <type id="highway.tertiary" priority="10" numLanes="1" speed="22.22" disallow="tram rail_urban rail rail_electric rail_fast ship container cable_car subway aircraft wheelchair scooter drone" oneway="0"/>
    <type id="highway.unclassified" priority="4" numLanes="1" speed="13.89" disallow="tram rail_urban rail rail_electric rail_fast ship container cable_car subway aircraft wheelchair scooter drone" oneway="0"/>

    <edge id=":10035080317_0" function="internal">
        <lane id=":10035080317_0_0" index="0" disallow="pedestrian tram rail_urban rail rail_electric rail_fast ship container cable_car subway aircraft wheelchair scooter drone" speed="4.33" length="6.57" width="4.50" shape="386867.39,5819776.77 386867.63,5819778.79 386867.14,5819779.94 386865.92,5819780.24 386863.97,5819779.69"/>
    </edge>
    <edge id=":10142422955_0" function="internal">
        <lane id=":10142422955_0_0" index="0" disallow="pedestrian tram rail_urban rail rail_electric rail_fast ship container cable_car subway aircraft wheelchair scooter drone" speed="13.89" length="8.85" shape="387508.02,5819504.16 387505.28,5819503.89 387503.41,5819503.58 387501.60,5819503.04 387499.03,5819502.08"/>
        <lane id=":10142422955_0_1" index="1" disallow="pedestrian tram rail_urban rail rail_electric rail_fast ship container cable_car subway aircraft wheelchair scooter drone" speed="13.89" length="8.85" shape="387508.31,5819500.98 387505.83,5819500.73 387504.14,5819500.45 387502.50,5819499.96 387500.17,5819499.09"/>
    </edge>
    <edge id=":10142422960_0" function="internal">
        <lane id=":10142422960_0_0" index="0" disallow="pedestrian tram rail_urban rail rail_electric rail_fast ship container cable_car subway aircraft wheelchair scooter drone" speed="13.89" length="7.37" shape="387508.58,5819487.80 387510.61,5819488.00 387512.02,5819487.71 387513.45,5819487.34 387515.52,5819487.29"/>
        <lane id=":10142422960_0_1" index="1" disallow="pedestrian tram rail_urban rail rail_electric rail_fast ship container cable_car subway aircraft wheelchair scooter drone" speed="13.89" length="7.37" shape="387507.87,5819490.92 387510.02,5819491.15 387511.52,5819490.88 387513.04,5819490.52 387515.23,5819490.47"/>
        <lane id=":10142422960_0_2" index="2" disallow="pedestrian tram rail_urban rail rail_electric rail_fast ship container cable_car subway aircraft wheelchair scooter drone" speed="13.89" length="7.37" shape="387507.87,5819490.92 387510.00,5819491.65 387511.37,5819492.48 387512.76,5819493.20 387514.94,5819493.66"/>
    </edge>
    <edge id=":10157881211_0" function="internal">
        <lane id=":10157881211_0_0" index="0" disallow="pedestrian tram rail_urban rail rail_electric rail_fast ship container cable_car subway aircraft wheelchair scooter drone" speed="3.65" length="4.67" shape="386189.36,5819650.38 386189.50,5819648.95 386190.02,5819648.22 386190.91,5819648.19 386192.18,5819648.88"/>
    </edge>
    <edge id=":10282176660_0" function="internal">
        <lane id=":10282176660_0_0" index="0" disallow="tram rail_urban rail rail_electric rail_fast ship container cable_car subway aircraft wheelchair scooter drone" speed="3.65" length="4.67" shape="387492.73,5819920.50 387492.91,5819921.93 387492.56,5819922.75 387491.69,5819922.97 387490.31,5819922.58"/>
    </edge>
    <edge id=":10923679095_0" function="internal">
        <lane id=":10923679095_0_0" index="0" disallow="pedestrian tram rail_urban rail rail_electric rail_fast ship container cable_car subway aircraft wheelchair scooter drone" speed="8.33" length="10.55" shape="386330.68,5818933.77 386333.32,5818934.06 386335.87,5818933.77 386338.31,5818932.91 386340.64,5818931.48"/>
    </edge>
    <edge id=":10923679095_1" function="internal">
        <lane id=":10923679095_1_0" index="0" disallow="pedestrian tram rail_urban rail rail_electric rail_fast ship container cable_car subway aircraft wheelchair scooter drone" speed="3.65" length="4.67" shape="386330.68,5818933.77 386331.69,5818934.80 386331.91,5818935.67 386331.36,5818936.37 386330.02,5818936.90"/>
    </edge>
    <edge id=":10923679095_2" function="internal">
        <lane id=":10923679095_2_0" index="0" disallow="pedestrian tram rail_urban rail rail_electric rail_fast ship container cable_car subway aircraft wheelchair scooter drone" speed="7.42" length="9.10" shape="386334.91,5818943.83 386334.35,5818941.13 386333.34,5818939.08 386331.90,5818937.67 386330.02,5818936.90"/>
    </edge>
    <edge id=":10923679095_3" function="internal">
        <lane id=":10923679095_3_0" index="0" disallow="pedestrian tram rail_urban rail rail_electric rail_fast ship container cable_car subway aircraft wheelchair scooter drone" speed="8.33" length="14.29" shape="386334.91,5818943.83 386334.95,5818940.28 386335.92,5818937.04 386337.82,5818934.10 386340.64,5818931.48"/>
    </edge>
    <edge id=":11778100892_0" function="internal">
        <lane id=":11778100892_0_0" index="0" disallow="tram rail_urban rail rail_electric rail_fast ship container cable_car subway aircraft wheelchair scooter drone" speed="11.11" length="0.25" shape="387216.11,5819498.36 387216.08,5819498.61"/>
    </edge>
    <edge id=":11778100892_1" function="internal">
        <lane id=":11778100892_1_0" index="0" disallow="tram rail_urban rail rail_electric rail_fast ship container cable_car subway aircraft wheelchair scooter drone" speed="11.11" length="0.31" shape="387212.89,5819498.31 387212.93,5819498.00"/>
    </edge>
    <edge id=":12377387971_0" function="internal">
        <lane id=":12377387971_0_0" index="0" disallow="pedestrian tram rail_urban rail rail_electric rail_fast ship container cable_car subway aircraft wheelchair scooter drone" speed="13.89" length="7.93" shape="386501.19,5818885.70 386502.77,5818883.84 386503.66,5818882.39 386504.62,5818881.01 386506.40,5818879.39"/>
        <lane id=":12377387971_0_1" index="1" disallow="pedestrian tram rail_urban rail rail_electric rail_fast ship container cable_car subway aircraft wheelchair scooter drone" speed="13.89" length="7.93" shape="386503.30,5818888.11 386504.83,5818886.30 386505.69,5818884.87 386506.60,5818883.52 386508.33,5818881.94"/>
        <lane id=":12377387971_0_2" index="2" disallow="pedestrian tram rail_urban rail rail_electric rail_fast ship container cable_car subway aircraft wheelchair scooter drone" speed="13.89" length="7.93" shape="386505.42,5818890.52 386506.90,5818888.75 386507.71,5818887.36 386508.59,5818886.03 386510.26,5818884.49"/>
        <lane id=":12377387971_0_3" index="3" disallow="pedestrian tram rail_urban rail rail_electric rail_fast ship container cable_car subway aircraft wheelchair scooter drone" speed="13.89" length="7.93" shape="386505.42,5818890.52 386507.19,5818889.16 386508.68,5818888.63 386510.24,5818888.17 386512.19,5818887.04"/>
    </edge>
    <edge id=":12377387988_0" function="internal">
        <lane id=":12377387988_0_0" index="0" disallow="pedestrian tram rail_urban rail rail_electric rail_fast ship container cable_car subway aircraft wheelchair scooter drone" speed="13.89" length="7.87" shape="386595.05,5818837.63 386593.71,5818839.64 386593.08,5818841.23 386592.41,5818842.77 386590.94,5818844.67"/>
        <lane id=":12377387988_0_1" index="1" disallow="pedestrian tram rail_urban rail rail_electric rail_fast ship container cable_car subway aircraft wheelchair scooter drone" speed="13.89" length="7.87" shape="386592.57,5818835.60 386591.29,5818837.56 386590.69,5818839.10 386590.05,5818840.61 386588.63,5818842.45"/>
        <lane id=":12377387988_0_2" index="2" disallow="pedestrian tram rail_urban rail rail_electric rail_fast ship container cable_car subway aircraft wheelchair scooter drone" speed="13.89" length="7.87" shape="386590.10,5818833.57 386588.86,5818835.47 386588.30,5818836.98 386587.69,5818838.44 386586.32,5818840.23"/>
        <lane id=":12377387988_0_3" index="3" disallow="pedestrian tram rail_urban rail rail_electric rail_fast ship container cable_car subway aircraft wheelchair scooter drone" speed="13.89" length="7.87" shape="386590.10,5818833.57 386588.51,5818835.11 386587.14,5818835.87 386585.73,5818836.58 386584.02,5818838.01"/>
    </edge>
    <edge id=":13050440749_0" function="internal">
        <lane id=":13050440749_0_0" index="0" disallow="pedestrian tram rail_urban rail rail_electric rail_fast ship container cable_car subway aircraft wheelchair scooter drone" speed="3.65" length="4.67" shape="386580.73,5819869.34 386579.36,5819869.79 386578.49,5819869.60 386578.11,5819868.79 386578.23,5819867.36"/>
    </edge>
    <edge id=":13050440765_0" function="internal">
        <lane id=":13050440765_0_0" index="0" disallow="pedestrian tram rail_urban rail rail_electric rail_fast ship container cable_car subway aircraft wheelchair scooter drone" speed="13.89" length="3.29" shape="386631.77,5819827.18 386630.91,5819827.55 386630.21,5819827.55 386629.51,5819827.56 386628.64,5819827.93"/>
    </edge>
    <edge id=":13050440765_1" function="internal">
        <lane id=":13050440765_1_0" index="0" disallow="pedestrian tram rail_urban rail rail_electric rail_fast ship container cable_car subway aircraft wheelchair scooter drone" speed="13.89" length="3.27" width="5.50" shape="386626.84,5819825.28 386627.50,5819824.62 386627.75,5819823.97 386628.00,5819823.31 386628.66,5819822.64"/>
    </edge>
    <edge id=":13050461395_0" function="internal">
        <lane id=":13050461395_0_0" index="0" disallow="pedestrian tram rail_urban rail rail_electric rail_fast ship container cable_car subway aircraft wheelchair scooter drone" speed="3.65" length="4.67" shape="386562.33,5819867.50 386562.21,5819868.94 386561.70,5819869.67 386560.80,5819869.71 386559.53,5819869.04"/>
    </edge>
    <edge id=":13050522310_0" function="internal">
        <lane id=":13050522310_0_0" index="0" disallow="pedestrian tram rail_urban rail rail_electric rail_fast ship container cable_car subway aircraft wheelchair scooter drone" speed="3.65" length="4.67" shape="386480.59,5819879.83 386480.45,5819881.27 386479.93,5819881.99 386479.03,5819882.01 386477.77,5819881.33"/>
    </edge>
    <edge id=":13063200922_0" function="internal">
        <lane id=":13063200922_0_0" index="0" disallow="pedestrian tram rail_urban rail rail_electric rail_fast ship container cable_car subway aircraft wheelchair scooter drone" speed="4.56" length="7.30" width="5.00" shape="386270.87,5819877.67 386268.62,5819877.53 386267.45,5819876.77 386267.36,5819875.37 386268.35,5819873.35"/>
    </edge>
    <edge id=":13065561519_0" function="internal">
        <lane id=":13065561519_0_0" index="0" disallow="pedestrian tram rail_urban rail rail_electric rail_fast ship container cable_car subway aircraft wheelchair scooter drone" speed="3.65" length="4.67" shape="386186.27,5819041.56 386186.94,5819040.28 386187.69,5819039.80 386188.53,5819040.11 386189.45,5819041.22"/>
    </edge>
    <edge id=":13065720426_0" function="internal">
        <lane id=":13065720426_0_0" index="0" disallow="pedestrian tram rail_urban rail rail_electric rail_fast ship container cable_car subway aircraft wheelchair scooter drone" speed="3.65" length="4.67" shape="386368.90,5818648.27 386369.56,5818646.98 386370.30,5818646.49 386371.14,5818646.79 386372.08,5818647.89"/>
    </edge>
    <edge id=":13277799383_0" function="internal">
        <lane id=":13277799383_0_0" index="0" disallow="tram rail_urban rail rail_electric rail_fast ship container cable_car subway aircraft wheelchair scooter drone" speed="3.65" length="4.67" shape="387263.75,5819845.14 387263.42,5819846.54 387262.81,5819847.20 387261.92,5819847.10 387260.75,5819846.26"/>
    </edge>
    <edge id=":1560792323_0" function="internal">
        <lane id=":1560792323_0_0" index="0" disallow="pedestrian tram rail_urban rail rail_electric rail_fast ship container cable_car subway aircraft wheelchair scooter drone" speed="13.89" length="8.03" shape="386202.02,5819229.13 386200.97,5819231.33 386200.58,5819232.99 386200.14,5819234.64 386198.99,5819236.77"/>
        <lane id=":1560792323_0_1" index="1" disallow="pedestrian tram rail_urban rail rail_electric rail_fast ship container cable_car subway aircraft wheelchair scooter drone" speed="13.89" length="8.03" shape="386199.28,5819227.47 386198.26,5819229.62 386197.89,5819231.26 386197.48,5819232.87 386196.35,5819234.96"/>
        <lane id=":1560792323_0_2" index="2" disallow="pedestrian tram rail_urban rail rail_electric rail_fast ship container cable_car subway aircraft wheelchair scooter drone" speed="13.89" length="8.03" shape="386196.54,5819225.81 386195.55,5819227.92 386195.20,5819229.52 386194.81,5819231.10 386193.71,5819233.15"/>
        <lane id=":1560792323_0_3" index="3" disallow="pedestrian tram rail_urban rail rail_electric rail_fast ship container cable_car subway aircraft wheelchair scooter drone" speed="13.89" length="8.03" shape="386196.54,5819225.81 386195.15,5819227.63 386193.88,5819228.62 386192.57,5819229.59 386191.08,5819231.33"/>
    </edge>
    <edge id=":1560874123_0" function="internal">
        <lane id=":1560874123_0_0" index="0" disallow="pedestrian tram rail_urban rail rail_electric rail_fast ship container cable_car subway aircraft wheelchair scooter drone" speed="5.56" length="11.65" shape="386962.51,5818903.01 386960.02,5818905.05 386958.20,5818906.93 386956.33,5818908.74 386953.72,5818910.60"/>
    </edge>
    <edge id=":1560874123_1" function="internal">
        <lane id=":1560874123_1_0" index="0" disallow="pedestrian tram rail_urban rail rail_electric rail_fast ship container cable_car subway aircraft wheelchair scooter drone" speed="5.56" length="9.05" shape="386962.51,5818903.01 386960.26,5818904.15 386958.27,5818904.22 386956.54,5818903.22 386955.09,5818901.15"/>
    </edge>
    <edge id=":1778333918_0" function="internal">
        <lane id=":1778333918_0_0" index="0" disallow="pedestrian tram rail_urban rail rail_electric rail_fast ship container cable_car subway aircraft wheelchair scooter drone" speed="3.65" length="4.67" shape="386681.90,5819892.10 386681.76,5819893.54 386681.25,5819894.27 386680.35,5819894.30 386679.08,5819893.62"/>
    </edge>
    <edge id=":21590983_0" function="internal">
        <lane id=":21590983_0_0" index="0" disallow="pedestrian tram rail_urban rail rail_electric rail_fast ship container cable_car subway aircraft wheelchair scooter drone" speed="6.80" length="10.21" width="6.00" shape="386554.43,5819693.40 386551.61,5819692.12 386549.20,5819691.92 386547.20,5819692.80 386545.61,5819694.75"/>
    </edge>
    <edge id=":21590983_1" function="internal">
        <lane id=":21590983_1_0" index="0" disallow="pedestrian tram rail_urban rail rail_electric rail_fast ship container cable_car subway aircraft wheelchair scooter drone" speed="8.92" length="17.78" width="6.00" shape="386554.43,5819693.40 386549.79,5819689.98 386547.10,5819686.46 386546.38,5819682.85 386547.61,5819679.14"/>
    </edge>
    <edge id=":21590983_2" function="internal">
        <lane id=":21590983_2_0" index="0" disallow="pedestrian tram rail_urban rail rail_electric rail_fast ship container cable_car subway aircraft wheelchair scooter drone" speed="3.65" length="4.67" shape="386554.43,5819693.40 386553.81,5819692.10 386553.88,5819691.20 386554.63,5819690.72 386556.07,5819690.66"/>
    </edge>
    <edge id=":21590983_3" function="internal">
        <lane id=":21590983_3_0" index="0" disallow="pedestrian tram rail_urban rail rail_electric rail_fast ship container cable_car subway aircraft wheelchair scooter drone" speed="7.20" length="10.30" shape="386552.79,5819682.18 386551.93,5819684.51 386552.19,5819686.70 386553.58,5819688.75 386556.07,5819690.66"/>
    </edge>
    <edge id=":21590983_4" function="internal">
        <lane id=":21590983_4_0" index="0" disallow="pedestrian tram rail_urban rail rail_electric rail_fast ship container cable_car subway aircraft wheelchair scooter drone" speed="13.89" length="14.48" width="6.00" shape="386552.79,5819682.18 386545.61,5819694.75"/>
    </edge>
    <edge id=":21590983_5" function="internal">
        <lane id=":21590983_5_0" index="0" disallow="pedestrian tram rail_urban rail rail_electric rail_fast ship container cable_car subway aircraft wheelchair scooter drone" speed="5.00" length="3.42" width="6.00" shape="386552.79,5819682.18 386550.35,5819683.36 386549.63,5819683.31"/>
    </edge>
    <edge id=":21590983_9" function="internal">
        <lane id=":21590983_9_0" index="0" disallow="pedestrian tram rail_urban rail rail_electric rail_fast ship container cable_car subway aircraft wheelchair scooter drone" speed="5.00" length="5.34" width="6.00" shape="386549.63,5819683.31 386548.68,5819683.25 386547.77,5819681.84 386547.61,5819679.14"/>
    </edge>
    <edge id=":21590983_6" function="internal">
        <lane id=":21590983_6_0" index="0" disallow="pedestrian tram rail_urban rail rail_electric rail_fast ship container cable_car subway aircraft wheelchair scooter drone" speed="13.89" length="14.62" width="6.00" shape="386540.36,5819691.84 386547.61,5819679.14"/>
    </edge>
    <edge id=":21590983_7" function="internal">
        <lane id=":21590983_7_0" index="0" disallow="pedestrian tram rail_urban rail rail_electric rail_fast ship container cable_car subway aircraft wheelchair scooter drone" speed="9.04" length="5.91" shape="386540.36,5819691.84 386543.00,5819688.78 386544.77,5819688.17"/>
    </edge>
    <edge id=":21590983_8" function="internal">
        <lane id=":21590983_8_0" index="0" disallow="pedestrian tram rail_urban rail rail_electric rail_fast ship container cable_car subway aircraft wheelchair scooter drone" speed="5.00" length="3.48" width="6.00" shape="386540.36,5819691.84 386542.77,5819690.60 386543.54,5819690.64"/>
    </edge>
    <edge id=":21590983_10" function="internal">
        <lane id=":21590983_10_0" index="0" disallow="pedestrian tram rail_urban rail rail_electric rail_fast ship container cable_car subway aircraft wheelchair scooter drone" speed="9.04" length="12.01" shape="386544.77,5819688.17 386546.50,5819687.56 386550.86,5819688.19 386556.07,5819690.66"/>
    </edge>
    <edge id=":21590983_11" function="internal">
        <lane id=":21590983_11_0" index="0" disallow="pedestrian tram rail_urban rail rail_electric rail_fast ship container cable_car subway aircraft wheelchair scooter drone" speed="5.00" length="5.28" width="6.00" shape="386543.54,5819690.64 386544.44,5819690.68 386545.39,5819692.06 386545.61,5819694.75"/>
    </edge>
    <edge id=":21677257_0" function="internal">
        <lane id=":21677257_0_0" index="0" disallow="pedestrian tram rail_urban rail rail_electric rail_fast ship container cable_car subway aircraft wheelchair scooter drone" speed="6.79" length="9.94" width="5.50" shape="386643.82,5819827.87 386642.02,5819825.48 386640.05,5819824.17 386637.93,5819823.94 386635.65,5819824.79"/>
    </edge>
    <edge id=":21677257_1" function="internal">
        <lane id=":21677257_1_0" index="0" disallow="pedestrian tram rail_urban rail rail_electric rail_fast ship container cable_car subway aircraft wheelchair scooter drone" speed="13.89" length="19.04" shape="386643.82,5819827.87 386634.72,5819811.16"/>
    </edge>
    <edge id=":21677257_2" function="internal">
        <lane id=":21677257_2_0" index="0" disallow="pedestrian tram rail_urban rail rail_electric rail_fast ship container cable_car subway aircraft wheelchair scooter drone" speed="8.37" length="2.74" width="5.50" shape="386643.82,5819827.87 386642.93,5819825.28"/>
    </edge>
    <edge id=":21677257_3" function="internal">
        <lane id=":21677257_3_0" index="0" disallow="pedestrian tram rail_urban rail rail_electric rail_fast ship container cable_car subway aircraft wheelchair scooter drone" speed="3.65" length="1.44" shape="386643.82,5819827.87 386643.96,5819826.44"/>
    </edge>
    <edge id=":21677257_16" function="internal">
        <lane id=":21677257_16_0" index="0" disallow="pedestrian tram rail_urban rail rail_electric rail_fast ship container cable_car subway aircraft wheelchair scooter drone" speed="8.37" length="13.60" width="5.50" shape="386642.93,5819825.28 386642.48,5819823.99 386642.33,5819819.54 386643.45,5819815.50 386645.90,5819812.87"/>
    </edge>
    <edge id=":21677257_17" function="internal">
        <lane id=":21677257_17_0" index="0" disallow="pedestrian tram rail_urban rail rail_electric rail_fast ship container cable_car subway aircraft wheelchair scooter drone" speed="3.65" length="3.23" shape="386643.96,5819826.44 386644.48,5819825.71 386645.37,5819825.68 386646.64,5819826.36"/>
    </edge>
    <edge id=":21677257_4" function="internal">
        <lane id=":21677257_4_0" index="0" disallow="pedestrian tram rail_urban rail rail_electric rail_fast ship container cable_car subway aircraft wheelchair scooter drone" speed="6.94" length="10.12" shape="386648.40,5819817.77 386646.33,5819819.31 386645.34,5819821.25 386645.45,5819823.60 386646.64,5819826.36"/>
    </edge>
    <edge id=":21677257_5" function="internal">
        <lane id=":21677257_5_0" index="0" disallow="pedestrian tram rail_urban rail rail_electric rail_fast ship container cable_car subway aircraft wheelchair scooter drone" speed="13.89" length="14.56" width="5.50" shape="386648.40,5819817.77 386635.65,5819824.79"/>
    </edge>
    <edge id=":21677257_6" function="internal">
        <lane id=":21677257_6_0" index="0" disallow="pedestrian tram rail_urban rail rail_electric rail_fast ship container cable_car subway aircraft wheelchair scooter drone" speed="9.01" length="17.10" shape="386648.40,5819817.77 386644.60,5819818.86 386641.05,5819818.12 386637.76,5819815.55 386634.72,5819811.16"/>
    </edge>
    <edge id=":21677257_7" function="internal">
        <lane id=":21677257_7_0" index="0" disallow="pedestrian tram rail_urban rail rail_electric rail_fast ship container cable_car subway aircraft wheelchair scooter drone" speed="4.79" length="8.03" width="5.50" shape="386648.40,5819817.77 386645.94,5819817.49 386644.70,5819816.57 386644.69,5819815.04 386645.90,5819812.87"/>
    </edge>
    <edge id=":21677257_8" function="internal">
        <lane id=":21677257_8_0" index="0" disallow="pedestrian tram rail_urban rail rail_electric rail_fast ship container cable_car subway aircraft wheelchair scooter drone" speed="6.94" length="10.16" width="5.50" shape="386637.53,5819809.62 386639.26,5819812.03 386641.23,5819813.37 386643.44,5819813.65 386645.90,5819812.87"/>
    </edge>
    <edge id=":21677257_9" function="internal">
        <lane id=":21677257_9_0" index="0" disallow="pedestrian tram rail_urban rail rail_electric rail_fast ship container cable_car subway aircraft wheelchair scooter drone" speed="13.89" length="19.06" shape="386637.53,5819809.62 386646.64,5819826.36"/>
    </edge>
    <edge id=":21677257_10" function="internal">
        <lane id=":21677257_10_0" index="0" disallow="pedestrian tram rail_urban rail rail_electric rail_fast ship container cable_car subway aircraft wheelchair scooter drone" speed="8.64" length="2.46" width="5.50" shape="386637.53,5819809.62 386638.29,5819811.96"/>
    </edge>
    <edge id=":21677257_11" function="internal">
        <lane id=":21677257_11_0" index="0" disallow="pedestrian tram rail_urban rail rail_electric rail_fast ship container cable_car subway aircraft wheelchair scooter drone" speed="3.65" length="1.44" shape="386637.53,5819809.62 386637.40,5819811.06"/>
    </edge>
    <edge id=":21677257_18" function="internal">
        <lane id=":21677257_18_0" index="0" disallow="pedestrian tram rail_urban rail rail_electric rail_fast ship container cable_car subway aircraft wheelchair scooter drone" speed="8.64" length="13.87" width="5.50" shape="386638.29,5819811.96 386638.81,5819813.56 386638.95,5819818.03 386637.91,5819822.09 386635.65,5819824.79"/>
    </edge>
    <edge id=":21677257_19" function="internal">
        <lane id=":21677257_19_0" index="0" disallow="pedestrian tram rail_urban rail rail_electric rail_fast ship container cable_car subway aircraft wheelchair scooter drone" speed="3.65" length="3.23" shape="386637.40,5819811.06 386636.89,5819811.79 386636.00,5819811.82 386634.72,5819811.16"/>
    </edge>
    <edge id=":21677257_12" function="internal">
        <lane id=":21677257_12_0" index="0" disallow="pedestrian tram rail_urban rail rail_electric rail_fast ship container cable_car subway aircraft wheelchair scooter drone" speed="7.20" length="10.28" shape="386632.85,5819820.05 386634.88,5819818.37 386635.87,5819816.32 386635.81,5819813.92 386634.72,5819811.16"/>
    </edge>
    <edge id=":21677257_13" function="internal">
        <lane id=":21677257_13_0" index="0" disallow="pedestrian tram rail_urban rail rail_electric rail_fast ship container cable_car subway aircraft wheelchair scooter drone" speed="13.89" length="14.89" width="5.50" shape="386632.85,5819820.05 386645.90,5819812.87"/>
    </edge>
    <edge id=":21677257_14" function="internal">
        <lane id=":21677257_14_0" index="0" disallow="pedestrian tram rail_urban rail rail_electric rail_fast ship container cable_car subway aircraft wheelchair scooter drone" speed="8.91" length="17.14" shape="386632.85,5819820.05 386636.52,5819818.79 386640.05,5819819.42 386643.42,5819821.94 386646.64,5819826.36"/>
    </edge>
    <edge id=":21677257_15" function="internal">
        <lane id=":21677257_15_0" index="0" disallow="pedestrian tram rail_urban rail rail_electric rail_fast ship container cable_car subway aircraft wheelchair scooter drone" speed="4.79" length="8.03" width="5.50" shape="386632.85,5819820.05 386635.33,5819820.19 386636.62,5819821.02 386636.72,5819822.56 386635.65,5819824.79"/>
    </edge>
    <edge id=":21677258_0" function="internal">
        <lane id=":21677258_0_0" index="0" disallow="pedestrian tram rail_urban rail rail_electric rail_fast ship container cable_car subway aircraft wheelchair scooter drone" speed="8.33" length="3.01" width="5.50" shape="387030.34,5819593.01 387028.18,5819595.11"/>
    </edge>
    <edge id=":21677258_1" function="internal">
        <lane id=":21677258_1_0" index="0" disallow="pedestrian tram rail_urban rail rail_electric rail_fast ship container cable_car subway aircraft wheelchair scooter drone" speed="8.33" length="2.99" width="5.60" shape="387024.28,5819591.23 387026.35,5819589.08"/>
    </edge>
    <edge id=":26703870_0" function="internal">
        <lane id=":26703870_0_0" index="0" disallow="pedestrian tram rail_urban rail rail_electric rail_fast ship container cable_car subway aircraft wheelchair scooter drone" speed="5.92" length="10.66" shape="387196.06,5819743.22 387193.54,5819740.36 387191.43,5819739.21 387189.72,5819739.78 387188.41,5819742.08"/>
    </edge>
    <edge id=":26703870_1" function="internal">
        <lane id=":26703870_1_0" index="0" disallow="tram rail_urban rail rail_electric rail_fast ship container cable_car subway aircraft wheelchair scooter drone" speed="13.89" length="14.38" shape="387196.06,5819743.22 387187.65,5819731.56"/>
    </edge>
    <edge id=":26703870_2" function="internal">
        <lane id=":26703870_2_0" index="0" disallow="tram rail_urban rail rail_electric rail_fast ship container cable_car subway aircraft wheelchair scooter drone" speed="3.65" length="1.44" shape="387196.06,5819743.22 387196.00,5819741.78"/>
    </edge>
    <edge id=":26703870_9" function="internal">
        <lane id=":26703870_9_0" index="0" disallow="tram rail_urban rail rail_electric rail_fast ship container cable_car subway aircraft wheelchair scooter drone" speed="3.65" length="3.23" shape="387196.00,5819741.78 387196.41,5819740.99 387197.29,5819740.84 387198.64,5819741.34"/>